


143144  0  0  0  0  0  0  0  0999 V2000
  -32.7341   67.7094   65.2553 C   0  0  0  0  0  0  0  0  0  0  0  0
  -32.9413   68.7193   65.9319 O   0  0  0  0  0  0  0  0  0  0  0  0
  -33.1757   67.7423   64.1282 N   0  0  0  0  0  0  0  0  0  0  0  0
  -32.6698   67.3564   63.3769 H   0  0  0  0  0  0  0  0  0  0  0  0
  -31.7087   65.3365   63.5504 C   0  0  0  0  0  0  0  0  0  0  0  0
  -32.7058   64.8583   64.0949 O   0  0  0  0  0  0  0  0  0  0  0  0
  -30.9900   66.2823   64.1937 N   0  0  0  0  0  0  0  0  0  0  0  0
  -31.4421   66.9150   65.4354 C   0  0  0  0  0  0  0  0  0  0  0  0
  -30.2794   67.8405   65.8037 C   0  0  0  0  0  0  0  0  0  0  0  0
  -29.4897   67.9809   64.5426 C   0  0  0  0  0  0  0  0  0  0  0  0
  -29.8370   66.8387   63.6310 C   0  0  0  0  0  0  0  0  0  0  0  0
  -31.1481   64.7131   62.2751 C   0  0  0  0  0  0  0  0  0  0  0  0
  -29.4398   63.1289   62.7004 C   0  0  0  0  0  0  0  0  0  0  0  0
  -28.5833   63.8316   62.1592 O   0  0  0  0  0  0  0  0  0  0  0  0
  -30.6843   63.3494   62.5137 N   0  0  0  0  0  0  0  0  0  0  0  0
  -31.3270   62.6038   62.5307 H   0  0  0  0  0  0  0  0  0  0  0  0
  -29.0963   61.7192   63.1730 C   0  0  0  0  0  0  0  0  0  0  0  0
  -26.8136   60.8539   63.1295 C   0  0  0  0  0  0  0  0  0  0  0  0
  -27.2204   59.8899   62.4791 O   0  0  0  0  0  0  0  0  0  0  0  0
  -27.7316   61.6600   63.6847 N   0  0  0  0  0  0  0  0  0  0  0  0
  -27.4791   62.2224   64.4523 H   0  0  0  0  0  0  0  0  0  0  0  0
  -25.3821   60.8822   63.6603 C   0  0  0  0  0  0  0  0  0  0  0  0
  -23.7290   62.6721   63.1528 C   0  0  0  0  0  0  0  0  0  0  0  0
  -22.8013   61.9270   62.8315 O   0  0  0  0  0  0  0  0  0  0  0  0
  -24.8760   62.2499   63.7346 N   0  0  0  0  0  0  0  0  0  0  0  0
  -25.4039   62.9085   64.2414 H   0  0  0  0  0  0  0  0  0  0  0  0
  -23.5103   64.1794   63.2673 C   0  0  0  0  0  0  0  0  0  0  0  0
  -22.2502   64.5571   65.2547 C   0  0  0  0  0  0  0  0  0  0  0  0
  -23.2570   64.9376   65.8558 O   0  0  0  0  0  0  0  0  0  0  0  0
  -22.2611   64.4447   63.9729 N   0  0  0  0  0  0  0  0  0  0  0  0
  -21.4224   64.5380   63.4659 H   0  0  0  0  0  0  0  0  0  0  0  0
  -20.8709   64.7034   65.8845 C   0  0  0  0  0  0  0  0  0  0  0  0
  -20.6390   66.3120   67.6649 C   0  0  0  0  0  0  0  0  0  0  0  0
  -19.8400   66.9588   66.9842 O   0  0  0  0  0  0  0  0  0  0  0  0
  -20.9791   65.1487   67.2693 N   0  0  0  0  0  0  0  0  0  0  0  0
  -21.3342   64.5162   67.9350 H   0  0  0  0  0  0  0  0  0  0  0  0
  -20.8506   66.6455   69.1403 C   0  0  0  0  0  0  0  0  0  0  0  0
  -23.1752   66.9795   69.5609 C   0  0  0  0  0  0  0  0  0  0  0  0
  -22.8314   68.1313   69.8383 O   0  0  0  0  0  0  0  0  0  0  0  0
  -22.1705   66.1923   69.5648 N   0  0  0  0  0  0  0  0  0  0  0  0
  -22.2888   65.2606   69.8602 H   0  0  0  0  0  0  0  0  0  0  0  0
  -24.4543   64.9862   70.2325 N   0  0  0  0  0  0  0  0  0  0  0  0
  -24.5159   66.4324   70.0404 C   0  0  0  0  0  0  0  0  0  0  0  0
  -24.9368   67.1232   71.3358 C   0  0  0  0  0  0  0  0  0  0  0  0
  -24.1723   64.5390   69.3602 H   0  0  0  0  0  0  0  0  0  0  0  0
  -25.3729   64.6407   70.5102 H   0  0  0  0  0  0  0  0  0  0  0  0
  -19.7306   66.0118   69.9954 C   0  0  0  0  0  0  0  0  0  0  0  0
  -20.0303   64.5402   70.2734 C   0  0  0  0  0  0  0  0  0  0  0  0
  -18.3789   66.1628   69.2991 C   0  0  0  0  0  0  0  0  0  0  0  0
  -20.1124   63.3744   65.8039 C   0  0  0  0  0  0  0  0  0  0  0  0
  -18.7607   63.4057   66.4650 C   0  0  0  0  0  0  0  0  0  0  0  0
  -18.4918   62.6030   67.5661 C   0  0  0  0  0  0  0  0  0  0  0  0
  -17.7592   64.2382   65.9840 C   0  0  0  0  0  0  0  0  0  0  0  0
  -17.2424   62.6296   68.1802 C   0  0  0  0  0  0  0  0  0  0  0  0
  -16.5081   64.2712   66.5924 C   0  0  0  0  0  0  0  0  0  0  0  0
  -16.2512   63.4668   67.6912 C   0  0  0  0  0  0  0  0  0  0  0  0
  -23.5192   64.8279   61.8646 C   0  0  0  0  0  0  0  0  0  0  0  0
  -24.7615   65.6972   61.6797 C   0  0  0  0  0  0  0  0  0  0  0  0
  -22.2500   65.6501   61.6498 C   0  0  0  0  0  0  0  0  0  0  0  0
  -25.3161   60.2107   65.0333 C   0  0  0  0  0  0  0  0  0  0  0  0
  -24.3049   59.0788   65.0924 C   0  0  0  0  0  0  0  0  0  0  0  0
  -24.2491   58.3646   66.1165 O   0  0  0  0  0  0  0  0  0  0  0  0
  -23.5553   58.9024   64.1082 O   0  0  0  0  0  0  0  0  0  0  0  0
  -24.8286   58.5286   66.8342 H   0  0  0  0  0  0  0  0  0  0  0  0
  -30.0913   61.2727   64.2481 C   0  0  0  0  0  0  0  0  0  0  0  0
  -30.8268   59.9577   63.9860 C   0  0  0  0  0  0  0  0  0  0  0  0
  -29.9443   58.7726   64.3657 C   0  0  0  0  0  0  0  0  0  0  0  0
  -32.1433   59.9183   64.7550 C   0  0  0  0  0  0  0  0  0  0  0  0
  -32.2080   64.7354   61.1700 C   0  0  0  0  0  0  0  0  0  0  0  0
  -32.3369   66.0807   60.4703 C   0  0  0  0  0  0  0  0  0  0  0  0
  -31.7773   66.0776   59.0561 C   0  0  0  0  0  0  0  0  0  0  0  0
  -30.6125   66.4940   58.8632 O   0  0  0  0  0  0  0  0  0  0  0  0
  -32.5117   65.6575   58.1338 O   0  0  0  0  0  0  0  0  0  0  0  0
  -30.0986   66.7995   59.5848 H   0  0  0  0  0  0  0  0  0  0  0  0
  -34.4751   68.3675   63.9110 C   0  0  0  0  0  0  0  0  0  0  0  0
  -35.5301   67.3188   63.5684 C   0  0  0  0  0  0  0  0  0  0  0  0
  -35.3571   66.5412   62.6286 O   0  0  0  0  0  0  0  0  0  0  0  0
  -36.4895   67.0187   64.5220 N   0  0  0  0  0  0  0  0  0  0  0  0
  -36.4142   67.4523   65.4026 H   0  0  0  0  0  0  0  0  0  0  0  0
  -37.6039   66.1018   64.3064 C   0  0  0  0  0  0  0  0  0  0  0  0
  -37.2405   64.7144   64.8306 C   0  0  0  0  0  0  0  0  0  0  0  0
  -36.1284   64.2306   64.6056 O   0  0  0  0  0  0  0  0  0  0  0  0
  -38.0382   64.3173   65.8569 N   0  0  0  0  0  0  0  0  0  0  0  0
  -38.7033   64.9222   66.2581 H   0  0  0  0  0  0  0  0  0  0  0  0
  -37.8601   62.9506   66.3347 C   0  0  0  0  0  0  0  0  0  0  0  0
  -38.6642   61.9893   65.4631 C   0  0  0  0  0  0  0  0  0  0  0  0
  -38.1699   61.5077   64.4408 O   0  0  0  0  0  0  0  0  0  0  0  0
  -39.6369   61.4265   66.1073 N   0  0  0  0  0  0  0  0  0  0  0  0
  -39.7418   61.6029   67.0702 H   0  0  0  0  0  0  0  0  0  0  0  0
  -40.5810   60.5368   65.4383 C   0  0  0  0  0  0  0  0  0  0  0  0
  -42.0224   60.9350   65.7456 C   0  0  0  0  0  0  0  0  0  0  0  0
  -42.2655   61.9512   66.4001 O   0  0  0  0  0  0  0  0  0  0  0  0
  -43.0790   60.7190   64.8401 N   0  0  0  0  0  0  0  0  0  0  0  0
  -42.8236   60.4074   63.9418 H   0  0  0  0  0  0  0  0  0  0  0  0
  -44.5087   60.9023   65.0754 C   0  0  0  0  0  0  0  0  0  0  0  0
  -45.3219   59.7844   64.4296 C   0  0  0  0  0  0  0  0  0  0  0  0
  -44.7889   58.9937   63.6478 O   0  0  0  0  0  0  0  0  0  0  0  0
  -46.2250   59.1669   65.2394 N   0  0  0  0  0  0  0  0  0  0  0  0
  -46.1855   59.3874   66.1981 H   0  0  0  0  0  0  0  0  0  0  0  0
  -47.2457   58.2101   64.8255 C   0  0  0  0  0  0  0  0  0  0  0  0
  -48.3648   58.9362   64.0822 C   0  0  0  0  0  0  0  0  0  0  0  0
  -49.5452   58.7323   64.3728 O   0  0  0  0  0  0  0  0  0  0  0  0
  -48.2576   60.1386   63.8153 N   0  0  0  0  0  0  0  0  0  0  0  0
  -47.5326   60.5991   64.2964 H   0  0  0  0  0  0  0  0  0  0  0  0
  -49.0191   60.9937   62.9110 C   0  0  0  0  0  0  0  0  0  0  0  0
  -48.1765   61.4071   61.7084 C   0  0  0  0  0  0  0  0  0  0  0  0
  -47.3497   62.3158   61.8065 O   0  0  0  0  0  0  0  0  0  0  0  0
  -49.5271   62.2359   63.6452 C   0  0  0  0  0  0  0  0  0  0  0  0
  -50.7921   62.8309   63.0475 C   0  0  0  0  0  0  0  0  0  0  0  0
  -50.5183   64.1559   62.3497 C   0  0  0  0  0  0  0  0  0  0  0  0
  -51.4229   65.2054   62.8098 N   0  0  0  0  0  0  0  0  0  0  0  0
  -49.9906   66.0170   64.4299 N   0  0  0  0  0  0  0  0  0  0  0  0
  -52.0484   66.9811   64.1243 N   0  0  0  0  0  0  0  0  0  0  0  0
  -51.1521   66.0659   63.7871 C   0  0  0  0  0  0  0  0  0  0  0  0
  -49.3202   65.3393   64.1842 H   0  0  0  0  0  0  0  0  0  0  0  0
  -49.8003   66.6585   65.1521 H   0  0  0  0  0  0  0  0  0  0  0  0
  -52.9112   67.0227   63.6518 H   0  0  0  0  0  0  0  0  0  0  0  0
  -51.8520   67.6197   64.8474 H   0  0  0  0  0  0  0  0  0  0  0  0
  -47.8224   57.4363   66.0329 C   0  0  0  0  0  0  0  0  0  0  0  0
  -48.0017   55.9587   65.6920 C   0  0  0  0  0  0  0  0  0  0  0  0
  -46.9180   57.6013   67.2532 C   0  0  0  0  0  0  0  0  0  0  0  0
  -44.9706   62.2624   64.5455 C   0  0  0  0  0  0  0  0  0  0  0  0
  -46.2662   62.7577   65.1703 C   0  0  0  0  0  0  0  0  0  0  0  0
  -46.0562   63.8651   66.1902 C   0  0  0  0  0  0  0  0  0  0  0  0
  -45.0005   63.8799   66.8631 O   0  0  0  0  0  0  0  0  0  0  0  0
  -46.9563   64.7251   66.3195 O   0  0  0  0  0  0  0  0  0  0  0  0
  -47.7308   64.6753   65.7944 H   0  0  0  0  0  0  0  0  0  0  0  0
  -40.3358   59.0846   65.8543 C   0  0  0  0  0  0  0  0  0  0  0  0
  -39.3946   58.3504   64.9160 C   0  0  0  0  0  0  0  0  0  0  0  0
  -39.0436   57.1829   65.1946 O   0  0  0  0  0  0  0  0  0  0  0  0
  -38.9966   58.9453   63.8915 O   0  0  0  0  0  0  0  0  0  0  0  0
  -39.2823   59.8205   63.7173 H   0  0  0  0  0  0  0  0  0  0  0  0
  -38.2805   62.8104   67.8154 C   0  0  0  0  0  0  0  0  0  0  0  0
  -37.0928   62.3624   68.6733 C   0  0  0  0  0  0  0  0  0  0  0  0
  -38.8627   64.1308   68.3323 C   0  0  0  0  0  0  0  0  0  0  0  0
  -38.9012   64.2377   69.8512 C   0  0  0  0  0  0  0  0  0  0  0  0
  -37.9918   66.0222   62.8127 C   0  0  0  0  0  0  0  0  0  0  0  0
  -38.5033   64.6265   62.4614 C   0  0  0  0  0  0  0  0  0  0  0  0
  -39.0436   67.0788   62.4780 C   0  0  0  0  0  0  0  0  0  0  0  0
  -34.4088   69.4187   62.7875 C   0  0  0  0  0  0  0  0  0  0  0  0
  -35.7811   70.0276   62.5216 C   0  0  0  0  0  0  0  0  0  0  0  0
  -33.5016   70.4604   63.1685 O   0  0  0  0  0  0  0  0  0  0  0  0
  -33.8213   70.8873   63.9787 H   0  0  0  0  0  0  0  0  0  0  0  0
 42 43  1  0  0  0
 49 47  1  0  0  0
 43 38  1  0  0  0
 43 44  1  0  0  0
 47 48  1  0  0  0
 47 37  1  0  0  0
 40 38  1  0  0  0
 40 37  1  0  0  0
 38 39  2  0  0  0
 37 33  1  0  0  0
 33 34  2  0  0  0
 33 35  1  0  0  0
 35 32  1  0  0  0
 55 53  1  0  0  0
 55 56  2  0  0  0
 53 51  2  0  0  0
 56 54  1  0  0  0
 59 57  1  0  0  0
 32 28  1  0  0  0
 32 50  1  0  0  0
 29 28  2  0  0  0
 51 50  1  0  0  0
 51 52  1  0  0  0
 28 30  1  0  0  0
 54 52  2  0  0  0
 30 27  1  0  0  0
 57 27  1  0  0  0
 57 58  1  0  0  0
 27 23  1  0  0  0
 23 25  1  0  0  0
 23 24  2  0  0  0
 25 22  1  0  0  0
 68 66  1  0  0  0
 67 66  1  0  0  0
 66 65  1  0  0  0
 22 60  1  0  0  0
 22 18  1  0  0  0
 60 61  1  0  0  0
 19 18  2  0  0  0
 18 20  1  0  0  0
 20 17  1  0  0  0
 65 17  1  0  0  0
 17 13  1  0  0  0
 61 63  2  0  0  0
 61 62  1  0  0  0
 13 15  1  0  0  0
 13 14  2  0  0  0
 15 12  1  0  0  0
  6  5  2  0  0  0
 12 69  1  0  0  0
 12  5  1  0  0  0
 70 69  1  0  0  0
 70 71  1  0  0  0
 73 71  2  0  0  0
142140  1  0  0  0
 71 72  1  0  0  0
  5  7  1  0  0  0
140141  1  0  0  0
140 75  1  0  0  0
  7  8  1  0  0  0
  7 11  1  0  0  0
  3 75  1  0  0  0
  3  1  1  0  0  0
  8  1  1  0  0  0
  8  9  1  0  0  0
 11 10  1  0  0  0
136135  1  0  0  0
 75 76  1  0  0  0
  1  2  2  0  0  0
  9 10  1  0  0  0
135133  1  0  0  0
 77 76  2  0  0  0
 76 78  1  0  0  0
133134  1  0  0  0
133 85  1  0  0  0
 78 80  1  0  0  0
 83 85  1  0  0  0
 83 81  1  0  0  0
 85 86  1  0  0  0
 82 81  2  0  0  0
 81 80  1  0  0  0
 80137  1  0  0  0
 86 88  1  0  0  0
 86 87  2  0  0  0
137139  1  0  0  0
137138  1  0  0  0
 88 90  1  0  0  0
 92 91  2  0  0  0
121119  1  0  0  0
 91 90  1  0  0  0
 91 93  1  0  0  0
 90128  1  0  0  0
 93 95  1  0  0  0
 95122  1  0  0  0
 95 96  1  0  0  0
123122  1  0  0  0
123124  1  0  0  0
128129  1  0  0  0
119120  1  0  0  0
119100  1  0  0  0
124125  2  0  0  0
124126  1  0  0  0
 98 96  1  0  0  0
 98100  1  0  0  0
 96 97  2  0  0  0
100101  1  0  0  0
102101  2  0  0  0
129130  2  0  0  0
129131  1  0  0  0
101103  1  0  0  0
107106  2  0  0  0
103105  1  0  0  0
106105  1  0  0  0
105108  1  0  0  0
108109  1  0  0  0
109110  1  0  0  0
110111  1  0  0  0
111114  2  0  0  0
114113  1  0  0  0
114112  1  0  0  0
 42 45  1  0  0  0
 42 46  1  0  0  0
 40 41  1  0  0  0
 35 36  1  0  0  0
 30 31  1  0  0  0
 25 26  1  0  0  0
 62 64  1  0  0  0
 20 21  1  0  0  0
 15 16  1  0  0  0
 72 74  1  0  0  0
  3  4  1  0  0  0
142143  1  0  0  0
 78 79  1  0  0  0
 83 84  1  0  0  0
 88 89  1  0  0  0
131132  1  0  0  0
 93 94  1  0  0  0
126127  1  0  0  0
 98 99  1  0  0  0
103104  1  0  0  0
112115  1  0  0  0
112116  1  0  0  0
113117  1  0  0  0
113118  1  0  0  0
M  END
> <MODEL>
    1                                                                     

> <minimizedAffinity>
-9.82583

> <CNNscore>
0.1909259856

> <CNNaffinity>
7.1195449829

> <CNN_VS>
1.3593060970

> <CNNaffinity_variance>
0.7808870077

$$$$



143144  0  0  0  0  0  0  0  0999 V2000
  -33.3933   67.4587   61.9387 C   0  0  0  0  0  0  0  0  0  0  0  0
  -33.7490   66.2781   61.9541 O   0  0  0  0  0  0  0  0  0  0  0  0
  -33.3790   68.0088   63.0175 N   0  0  0  0  0  0  0  0  0  0  0  0
  -32.6654   68.6462   63.2492 H   0  0  0  0  0  0  0  0  0  0  0  0
  -30.3817   66.7403   61.8836 C   0  0  0  0  0  0  0  0  0  0  0  0
  -30.4745   67.4083   62.9153 O   0  0  0  0  0  0  0  0  0  0  0  0
  -31.2019   67.0069   60.8438 N   0  0  0  0  0  0  0  0  0  0  0  0
  -32.3353   67.9300   60.9432 C   0  0  0  0  0  0  0  0  0  0  0  0
  -32.8977   67.9532   59.5194 C   0  0  0  0  0  0  0  0  0  0  0  0
  -32.3277   66.7366   58.8645 C   0  0  0  0  0  0  0  0  0  0  0  0
  -31.1209   66.2955   59.6425 C   0  0  0  0  0  0  0  0  0  0  0  0
  -29.2096   65.7839   61.6824 C   0  0  0  0  0  0  0  0  0  0  0  0
  -26.9852   66.4954   61.2892 C   0  0  0  0  0  0  0  0  0  0  0  0
  -26.8251   65.6666   60.3905 O   0  0  0  0  0  0  0  0  0  0  0  0
  -27.9536   66.3894   62.1157 N   0  0  0  0  0  0  0  0  0  0  0  0
  -27.8537   66.7142   63.0396 H   0  0  0  0  0  0  0  0  0  0  0  0
  -25.8153   67.3493   61.7696 C   0  0  0  0  0  0  0  0  0  0  0  0
  -24.9036   65.6764   63.2965 C   0  0  0  0  0  0  0  0  0  0  0  0
  -25.8321   65.9159   64.0700 O   0  0  0  0  0  0  0  0  0  0  0  0
  -24.7270   66.5117   62.2612 N   0  0  0  0  0  0  0  0  0  0  0  0
  -23.8457   66.5602   61.8250 H   0  0  0  0  0  0  0  0  0  0  0  0
  -23.7506   64.7719   63.7261 C   0  0  0  0  0  0  0  0  0  0  0  0
  -25.0805   62.6689   63.7740 C   0  0  0  0  0  0  0  0  0  0  0  0
  -25.8126   62.9375   62.8196 O   0  0  0  0  0  0  0  0  0  0  0  0
  -24.2464   63.5562   64.3650 N   0  0  0  0  0  0  0  0  0  0  0  0
  -23.9547   63.3694   65.2866 H   0  0  0  0  0  0  0  0  0  0  0  0
  -25.3267   61.4165   64.6131 C   0  0  0  0  0  0  0  0  0  0  0  0
  -27.5620   61.7183   65.3829 C   0  0  0  0  0  0  0  0  0  0  0  0
  -27.1625   62.2061   66.4421 O   0  0  0  0  0  0  0  0  0  0  0  0
  -26.7489   61.0906   64.6078 N   0  0  0  0  0  0  0  0  0  0  0  0
  -27.0880   60.3871   64.0084 H   0  0  0  0  0  0  0  0  0  0  0  0
  -29.0351   61.3803   65.1931 C   0  0  0  0  0  0  0  0  0  0  0  0
  -30.7114   62.8496   66.1111 C   0  0  0  0  0  0  0  0  0  0  0  0
  -31.1734   61.9180   66.7735 O   0  0  0  0  0  0  0  0  0  0  0  0
  -29.8496   62.5903   65.2080 N   0  0  0  0  0  0  0  0  0  0  0  0
  -29.7271   63.2426   64.4809 H   0  0  0  0  0  0  0  0  0  0  0  0
  -31.4580   64.1783   66.0134 C   0  0  0  0  0  0  0  0  0  0  0  0
  -33.7446   63.8439   65.4199 C   0  0  0  0  0  0  0  0  0  0  0  0
  -33.4585   64.5280   64.4339 O   0  0  0  0  0  0  0  0  0  0  0  0
  -32.8665   63.9784   66.3363 N   0  0  0  0  0  0  0  0  0  0  0  0
  -33.1452   63.9467   67.2800 H   0  0  0  0  0  0  0  0  0  0  0  0
  -36.0897   64.4823   65.0282 N   0  0  0  0  0  0  0  0  0  0  0  0
  -35.1987   63.6603   65.8423 C   0  0  0  0  0  0  0  0  0  0  0  0
  -35.5964   62.1889   65.7452 C   0  0  0  0  0  0  0  0  0  0  0  0
  -35.8122   65.4609   65.1028 H   0  0  0  0  0  0  0  0  0  0  0  0
  -37.0485   64.3745   65.3589 H   0  0  0  0  0  0  0  0  0  0  0  0
  -30.8055   65.2256   66.9431 C   0  0  0  0  0  0  0  0  0  0  0  0
  -30.7046   66.5800   66.2442 C   0  0  0  0  0  0  0  0  0  0  0  0
  -31.5974   65.3499   68.2439 C   0  0  0  0  0  0  0  0  0  0  0  0
  -29.2341   60.6135   63.8813 C   0  0  0  0  0  0  0  0  0  0  0  0
  -29.8900   59.2704   64.0565 C   0  0  0  0  0  0  0  0  0  0  0  0
  -31.1667   59.1701   64.5944 C   0  0  0  0  0  0  0  0  0  0  0  0
  -29.2290   58.1083   63.6823 C   0  0  0  0  0  0  0  0  0  0  0  0
  -31.7764   57.9291   64.7579 C   0  0  0  0  0  0  0  0  0  0  0  0
  -29.8310   56.8641   63.8431 C   0  0  0  0  0  0  0  0  0  0  0  0
  -31.1047   56.7758   64.3819 C   0  0  0  0  0  0  0  0  0  0  0  0
  -24.4729   60.2427   64.0826 C   0  0  0  0  0  0  0  0  0  0  0  0
  -23.9696   59.3769   65.2360 C   0  0  0  0  0  0  0  0  0  0  0  0
  -25.2775   59.4041   63.0914 C   0  0  0  0  0  0  0  0  0  0  0  0
  -22.8756   64.4254   62.5201 C   0  0  0  0  0  0  0  0  0  0  0  0
  -21.6391   65.3012   62.4127 C   0  0  0  0  0  0  0  0  0  0  0  0
  -21.7026   66.3681   61.7648 O   0  0  0  0  0  0  0  0  0  0  0  0
  -20.5920   64.9191   62.9775 O   0  0  0  0  0  0  0  0  0  0  0  0
  -22.5068   66.6204   61.3553 H   0  0  0  0  0  0  0  0  0  0  0  0
  -25.3258   68.2505   60.6322 C   0  0  0  0  0  0  0  0  0  0  0  0
  -23.8241   68.5375   60.5940 C   0  0  0  0  0  0  0  0  0  0  0  0
  -23.3005   68.4291   59.1652 C   0  0  0  0  0  0  0  0  0  0  0  0
  -23.5280   69.9166   61.1740 C   0  0  0  0  0  0  0  0  0  0  0  0
  -29.4643   64.4753   62.4359 C   0  0  0  0  0  0  0  0  0  0  0  0
  -30.1532   63.4082   61.5976 C   0  0  0  0  0  0  0  0  0  0  0  0
  -31.5822   63.1295   62.0372 C   0  0  0  0  0  0  0  0  0  0  0  0
  -32.4936   63.9032   61.6653 O   0  0  0  0  0  0  0  0  0  0  0  0
  -31.7905   62.1305   62.7617 O   0  0  0  0  0  0  0  0  0  0  0  0
  -32.2907   64.6395   61.1225 H   0  0  0  0  0  0  0  0  0  0  0  0
  -34.4447   67.7038   63.9650 C   0  0  0  0  0  0  0  0  0  0  0  0
  -35.8105   68.0348   63.3689 C   0  0  0  0  0  0  0  0  0  0  0  0
  -36.0915   69.1921   63.0533 O   0  0  0  0  0  0  0  0  0  0  0  0
  -36.5736   66.9952   62.8622 N   0  0  0  0  0  0  0  0  0  0  0  0
  -36.1767   66.0943   62.8549 H   0  0  0  0  0  0  0  0  0  0  0  0
  -37.9269   67.1483   62.3387 C   0  0  0  0  0  0  0  0  0  0  0  0
  -38.9283   66.5144   63.3015 C   0  0  0  0  0  0  0  0  0  0  0  0
  -38.5438   65.9852   64.3473 O   0  0  0  0  0  0  0  0  0  0  0  0
  -40.1958   66.9665   63.1110 N   0  0  0  0  0  0  0  0  0  0  0  0
  -40.3948   67.6949   62.4793 H   0  0  0  0  0  0  0  0  0  0  0  0
  -41.2467   66.3193   63.8885 C   0  0  0  0  0  0  0  0  0  0  0  0
  -41.9410   65.2591   63.0377 C   0  0  0  0  0  0  0  0  0  0  0  0
  -42.1323   65.4482   61.8339 O   0  0  0  0  0  0  0  0  0  0  0  0
  -41.8766   64.0769   63.5631 N   0  0  0  0  0  0  0  0  0  0  0  0
  -41.3621   63.9464   64.3923 H   0  0  0  0  0  0  0  0  0  0  0  0
  -42.5494   62.9337   62.9539 C   0  0  0  0  0  0  0  0  0  0  0  0
  -43.6564   62.4016   63.8605 C   0  0  0  0  0  0  0  0  0  0  0  0
  -43.5844   62.5387   65.0837 O   0  0  0  0  0  0  0  0  0  0  0  0
  -45.0138   62.4091   63.4857 N   0  0  0  0  0  0  0  0  0  0  0  0
  -45.2315   62.8894   62.6543 H   0  0  0  0  0  0  0  0  0  0  0  0
  -46.1368   61.7890   64.1836 C   0  0  0  0  0  0  0  0  0  0  0  0
  -46.9202   62.8186   64.9925 C   0  0  0  0  0  0  0  0  0  0  0  0
  -48.0323   62.5426   65.4480 O   0  0  0  0  0  0  0  0  0  0  0  0
  -46.1882   63.5697   65.8601 N   0  0  0  0  0  0  0  0  0  0  0  0
  -45.2519   63.2999   66.0005 H   0  0  0  0  0  0  0  0  0  0  0  0
  -46.6558   64.7356   66.6022 C   0  0  0  0  0  0  0  0  0  0  0  0
  -47.1828   65.7900   65.6313 C   0  0  0  0  0  0  0  0  0  0  0  0
  -48.2617   66.3490   65.8384 O   0  0  0  0  0  0  0  0  0  0  0  0
  -46.4181   66.6379   65.1570 N   0  0  0  0  0  0  0  0  0  0  0  0
  -45.5475   66.7006   65.6123 H   0  0  0  0  0  0  0  0  0  0  0  0
  -46.5819   67.5615   64.0395 C   0  0  0  0  0  0  0  0  0  0  0  0
  -45.7042   67.1555   62.8598 C   0  0  0  0  0  0  0  0  0  0  0  0
  -45.3301   65.9883   62.7310 O   0  0  0  0  0  0  0  0  0  0  0  0
  -46.2501   68.9915   64.4702 C   0  0  0  0  0  0  0  0  0  0  0  0
  -45.1268   69.6313   63.6701 C   0  0  0  0  0  0  0  0  0  0  0  0
  -45.4804   71.0452   63.2308 C   0  0  0  0  0  0  0  0  0  0  0  0
  -45.3640   71.9976   64.3313 N   0  0  0  0  0  0  0  0  0  0  0  0
  -43.2965   72.8030   63.6896 N   0  0  0  0  0  0  0  0  0  0  0  0
  -44.3281   73.6380   65.5593 N   0  0  0  0  0  0  0  0  0  0  0  0
  -44.3297   72.8111   64.5244 C   0  0  0  0  0  0  0  0  0  0  0  0
  -43.2915   72.1908   62.9186 H   0  0  0  0  0  0  0  0  0  0  0  0
  -42.5358   73.4091   63.8419 H   0  0  0  0  0  0  0  0  0  0  0  0
  -45.0908   73.6490   66.1817 H   0  0  0  0  0  0  0  0  0  0  0  0
  -43.5643   74.2416   65.7060 H   0  0  0  0  0  0  0  0  0  0  0  0
  -45.5362   65.3348   67.4835 C   0  0  0  0  0  0  0  0  0  0  0  0
  -46.1241   65.9992   68.7263 C   0  0  0  0  0  0  0  0  0  0  0  0
  -44.5304   64.2537   67.8759 C   0  0  0  0  0  0  0  0  0  0  0  0
  -45.6460   60.6640   65.0987 C   0  0  0  0  0  0  0  0  0  0  0  0
  -45.5961   59.3011   64.4248 C   0  0  0  0  0  0  0  0  0  0  0  0
  -46.8425   58.4652   64.6671 C   0  0  0  0  0  0  0  0  0  0  0  0
  -47.8593   58.6725   63.9667 O   0  0  0  0  0  0  0  0  0  0  0  0
  -46.8029   57.5962   65.5669 O   0  0  0  0  0  0  0  0  0  0  0  0
  -46.0200   57.4751   66.0672 H   0  0  0  0  0  0  0  0  0  0  0  0
  -41.5436   61.8229   62.6435 C   0  0  0  0  0  0  0  0  0  0  0  0
  -42.2060   60.5324   62.1950 C   0  0  0  0  0  0  0  0  0  0  0  0
  -42.3324   59.5952   63.0133 O   0  0  0  0  0  0  0  0  0  0  0  0
  -42.6012   60.4496   61.0123 O   0  0  0  0  0  0  0  0  0  0  0  0
  -42.4884   61.1741   60.4289 H   0  0  0  0  0  0  0  0  0  0  0  0
  -42.2768   67.3463   64.4109 C   0  0  0  0  0  0  0  0  0  0  0  0
  -42.8917   66.8699   65.7309 C   0  0  0  0  0  0  0  0  0  0  0  0
  -41.6222   68.7223   64.5764 C   0  0  0  0  0  0  0  0  0  0  0  0
  -41.0066   68.9538   65.9502 C   0  0  0  0  0  0  0  0  0  0  0  0
  -38.0662   66.5186   60.9344 C   0  0  0  0  0  0  0  0  0  0  0  0
  -36.8848   66.9086   60.0483 C   0  0  0  0  0  0  0  0  0  0  0  0
  -38.1781   64.9984   61.0405 C   0  0  0  0  0  0  0  0  0  0  0  0
  -34.2572   68.4754   65.2846 C   0  0  0  0  0  0  0  0  0  0  0  0
  -34.3250   67.5378   66.4850 C   0  0  0  0  0  0  0  0  0  0  0  0
  -32.9815   69.1277   65.2729 O   0  0  0  0  0  0  0  0  0  0  0  0
  -32.2792   68.4631   65.1959 H   0  0  0  0  0  0  0  0  0  0  0  0
 42 43  1  0  0  0
 49 47  1  0  0  0
 43 38  1  0  0  0
 43 44  1  0  0  0
 47 48  1  0  0  0
 47 37  1  0  0  0
 40 38  1  0  0  0
 40 37  1  0  0  0
 38 39  2  0  0  0
 37 33  1  0  0  0
 33 34  2  0  0  0
 33 35  1  0  0  0
 35 32  1  0  0  0
 55 53  1  0  0  0
 55 56  2  0  0  0
 53 51  2  0  0  0
 56 54  1  0  0  0
 59 57  1  0  0  0
 32 28  1  0  0  0
 32 50  1  0  0  0
 29 28  2  0  0  0
 51 50  1  0  0  0
 51 52  1  0  0  0
 28 30  1  0  0  0
 54 52  2  0  0  0
 30 27  1  0  0  0
 57 27  1  0  0  0
 57 58  1  0  0  0
 27 23  1  0  0  0
 23 25  1  0  0  0
 23 24  2  0  0  0
 25 22  1  0  0  0
 68 66  1  0  0  0
 67 66  1  0  0  0
 66 65  1  0  0  0
 22 60  1  0  0  0
 22 18  1  0  0  0
 60 61  1  0  0  0
 19 18  2  0  0  0
 18 20  1  0  0  0
 20 17  1  0  0  0
 65 17  1  0  0  0
 17 13  1  0  0  0
 61 63  2  0  0  0
 61 62  1  0  0  0
 13 15  1  0  0  0
 13 14  2  0  0  0
 15 12  1  0  0  0
  6  5  2  0  0  0
 12 69  1  0  0  0
 12  5  1  0  0  0
 70 69  1  0  0  0
 70 71  1  0  0  0
 73 71  2  0  0  0
142140  1  0  0  0
 71 72  1  0  0  0
  5  7  1  0  0  0
140141  1  0  0  0
140 75  1  0  0  0
  7  8  1  0  0  0
  7 11  1  0  0  0
  3 75  1  0  0  0
  3  1  1  0  0  0
  8  1  1  0  0  0
  8  9  1  0  0  0
 11 10  1  0  0  0
136135  1  0  0  0
 75 76  1  0  0  0
  1  2  2  0  0  0
  9 10  1  0  0  0
135133  1  0  0  0
 77 76  2  0  0  0
 76 78  1  0  0  0
133134  1  0  0  0
133 85  1  0  0  0
 78 80  1  0  0  0
 83 85  1  0  0  0
 83 81  1  0  0  0
 85 86  1  0  0  0
 82 81  2  0  0  0
 81 80  1  0  0  0
 80137  1  0  0  0
 86 88  1  0  0  0
 86 87  2  0  0  0
137139  1  0  0  0
137138  1  0  0  0
 88 90  1  0  0  0
 92 91  2  0  0  0
121119  1  0  0  0
 91 90  1  0  0  0
 91 93  1  0  0  0
 90128  1  0  0  0
 93 95  1  0  0  0
 95122  1  0  0  0
 95 96  1  0  0  0
123122  1  0  0  0
123124  1  0  0  0
128129  1  0  0  0
119120  1  0  0  0
119100  1  0  0  0
124125  2  0  0  0
124126  1  0  0  0
 98 96  1  0  0  0
 98100  1  0  0  0
 96 97  2  0  0  0
100101  1  0  0  0
102101  2  0  0  0
129130  2  0  0  0
129131  1  0  0  0
101103  1  0  0  0
107106  2  0  0  0
103105  1  0  0  0
106105  1  0  0  0
105108  1  0  0  0
108109  1  0  0  0
109110  1  0  0  0
110111  1  0  0  0
111114  2  0  0  0
114113  1  0  0  0
114112  1  0  0  0
 42 45  1  0  0  0
 42 46  1  0  0  0
 40 41  1  0  0  0
 35 36  1  0  0  0
 30 31  1  0  0  0
 25 26  1  0  0  0
 62 64  1  0  0  0
 20 21  1  0  0  0
 15 16  1  0  0  0
 72 74  1  0  0  0
  3  4  1  0  0  0
142143  1  0  0  0
 78 79  1  0  0  0
 83 84  1  0  0  0
 88 89  1  0  0  0
131132  1  0  0  0
 93 94  1  0  0  0
126127  1  0  0  0
 98 99  1  0  0  0
103104  1  0  0  0
112115  1  0  0  0
112116  1  0  0  0
113117  1  0  0  0
113118  1  0  0  0
M  END
> <MODEL>
    1                                                                     

> <minimizedAffinity>
-8.16522

> <CNNscore>
0.1763833463

> <CNNaffinity>
7.1142807007

> <CNN_VS>
1.2548406124

> <CNNaffinity_variance>
2.1603765488

$$$$



143144  0  0  0  0  0  0  0  0999 V2000
  -33.8127   67.0731   66.4969 C   0  0  0  0  0  0  0  0  0  0  0  0
  -32.9169   67.9054   66.6568 O   0  0  0  0  0  0  0  0  0  0  0  0
  -34.4289   67.1693   65.4588 N   0  0  0  0  0  0  0  0  0  0  0  0
  -34.7146   66.3666   64.9656 H   0  0  0  0  0  0  0  0  0  0  0  0
  -31.5643   65.0413   65.8601 C   0  0  0  0  0  0  0  0  0  0  0  0
  -32.1509   65.1324   64.7798 O   0  0  0  0  0  0  0  0  0  0  0  0
  -32.2596   65.1939   67.0083 N   0  0  0  0  0  0  0  0  0  0  0  0
  -33.6500   65.6546   67.0391 C   0  0  0  0  0  0  0  0  0  0  0  0
  -34.0091   65.5944   68.5262 C   0  0  0  0  0  0  0  0  0  0  0  0
  -32.6939   65.5352   69.2338 C   0  0  0  0  0  0  0  0  0  0  0  0
  -31.6470   65.0754   68.2598 C   0  0  0  0  0  0  0  0  0  0  0  0
  -30.1271   64.5317   65.9210 C   0  0  0  0  0  0  0  0  0  0  0  0
  -30.3907   62.1788   65.8633 C   0  0  0  0  0  0  0  0  0  0  0  0
  -30.3366   62.0918   67.0920 O   0  0  0  0  0  0  0  0  0  0  0  0
  -29.9982   63.2353   65.2617 N   0  0  0  0  0  0  0  0  0  0  0  0
  -29.6109   63.1757   64.3586 H   0  0  0  0  0  0  0  0  0  0  0  0
  -30.4311   60.9205   65.0010 C   0  0  0  0  0  0  0  0  0  0  0  0
  -28.5556   60.6949   63.4541 C   0  0  0  0  0  0  0  0  0  0  0  0
  -29.3357   60.8949   62.5218 O   0  0  0  0  0  0  0  0  0  0  0  0
  -29.0828   60.4742   64.6683 N   0  0  0  0  0  0  0  0  0  0  0  0
  -28.5493   60.0019   65.3476 H   0  0  0  0  0  0  0  0  0  0  0  0
  -27.1150   60.2680   63.1813 C   0  0  0  0  0  0  0  0  0  0  0  0
  -26.1510   62.4859   63.7688 C   0  0  0  0  0  0  0  0  0  0  0  0
  -26.9964   62.7939   64.6111 O   0  0  0  0  0  0  0  0  0  0  0  0
  -26.2616   61.4266   62.9334 N   0  0  0  0  0  0  0  0  0  0  0  0
  -25.7315   61.4380   62.1038 H   0  0  0  0  0  0  0  0  0  0  0  0
  -25.0833   63.4894   63.3373 C   0  0  0  0  0  0  0  0  0  0  0  0
  -25.7665   65.4929   62.2422 C   0  0  0  0  0  0  0  0  0  0  0  0
  -25.0160   65.2639   61.2915 O   0  0  0  0  0  0  0  0  0  0  0  0
  -25.6419   64.8372   63.3423 N   0  0  0  0  0  0  0  0  0  0  0  0
  -25.9250   65.2471   64.1916 H   0  0  0  0  0  0  0  0  0  0  0  0
  -26.4805   66.8334   62.3596 C   0  0  0  0  0  0  0  0  0  0  0  0
  -28.3907   66.4619   60.9368 C   0  0  0  0  0  0  0  0  0  0  0  0
  -27.7195   66.7627   59.9474 O   0  0  0  0  0  0  0  0  0  0  0  0
  -27.9073   66.6845   62.0953 N   0  0  0  0  0  0  0  0  0  0  0  0
  -28.5311   66.7600   62.8532 H   0  0  0  0  0  0  0  0  0  0  0  0
  -29.9040   66.2880   60.8252 C   0  0  0  0  0  0  0  0  0  0  0  0
  -31.0658   68.0910   59.7804 C   0  0  0  0  0  0  0  0  0  0  0  0
  -31.7664   68.0626   60.7954 O   0  0  0  0  0  0  0  0  0  0  0  0
  -30.3993   67.0094   59.6581 N   0  0  0  0  0  0  0  0  0  0  0  0
  -30.2160   66.6548   58.7581 H   0  0  0  0  0  0  0  0  0  0  0  0
  -31.4833   70.2253   58.6266 N   0  0  0  0  0  0  0  0  0  0  0  0
  -31.5658   68.7720   58.5104 C   0  0  0  0  0  0  0  0  0  0  0  0
  -30.7672   68.2893   57.3014 C   0  0  0  0  0  0  0  0  0  0  0  0
  -32.0207   70.5325   59.4373 H   0  0  0  0  0  0  0  0  0  0  0  0
  -31.8634   70.6559   57.7837 H   0  0  0  0  0  0  0  0  0  0  0  0
  -30.2642   64.7869   60.7598 C   0  0  0  0  0  0  0  0  0  0  0  0
  -29.2388   63.9517   61.5239 C   0  0  0  0  0  0  0  0  0  0  0  0
  -31.6687   64.5517   61.3134 C   0  0  0  0  0  0  0  0  0  0  0  0
  -26.2503   67.4317   63.7514 C   0  0  0  0  0  0  0  0  0  0  0  0
  -25.2159   68.5245   63.7791 C   0  0  0  0  0  0  0  0  0  0  0  0
  -24.1673   68.5309   62.8683 C   0  0  0  0  0  0  0  0  0  0  0  0
  -25.2934   69.5457   64.7165 C   0  0  0  0  0  0  0  0  0  0  0  0
  -23.2086   69.5404   62.8912 C   0  0  0  0  0  0  0  0  0  0  0  0
  -24.3389   70.5579   64.7465 C   0  0  0  0  0  0  0  0  0  0  0  0
  -23.2963   70.5536   63.8336 C   0  0  0  0  0  0  0  0  0  0  0  0
  -23.8477   63.3832   64.2594 C   0  0  0  0  0  0  0  0  0  0  0  0
  -23.0586   62.1100   63.9600 C   0  0  0  0  0  0  0  0  0  0  0  0
  -22.9594   64.6160   64.1040 C   0  0  0  0  0  0  0  0  0  0  0  0
  -26.5775   59.4475   64.3552 C   0  0  0  0  0  0  0  0  0  0  0  0
  -25.1287   59.0291   64.1729 C   0  0  0  0  0  0  0  0  0  0  0  0
  -24.4401   58.7624   65.1812 O   0  0  0  0  0  0  0  0  0  0  0  0
  -24.6712   58.9696   63.0116 O   0  0  0  0  0  0  0  0  0  0  0  0
  -24.8196   58.8188   66.0360 H   0  0  0  0  0  0  0  0  0  0  0  0
  -31.1972   59.8130   65.7302 C   0  0  0  0  0  0  0  0  0  0  0  0
  -31.1003   58.4115   65.1257 C   0  0  0  0  0  0  0  0  0  0  0  0
  -31.6278   57.3725   66.1104 C   0  0  0  0  0  0  0  0  0  0  0  0
  -31.8651   58.3431   63.8079 C   0  0  0  0  0  0  0  0  0  0  0  0
  -29.1801   65.5545   65.2868 C   0  0  0  0  0  0  0  0  0  0  0  0
  -29.2182   66.9221   65.9533 C   0  0  0  0  0  0  0  0  0  0  0  0
  -29.7635   68.0158   65.0481 C   0  0  0  0  0  0  0  0  0  0  0  0
  -29.7879   69.1951   65.4677 O   0  0  0  0  0  0  0  0  0  0  0  0
  -30.1720   67.6890   63.9111 O   0  0  0  0  0  0  0  0  0  0  0  0
  -29.4711   69.3933   66.3270 H   0  0  0  0  0  0  0  0  0  0  0  0
  -34.7374   68.5034   64.9571 C   0  0  0  0  0  0  0  0  0  0  0  0
  -36.2378   68.6607   64.7239 C   0  0  0  0  0  0  0  0  0  0  0  0
  -36.6578   69.2256   63.7127 O   0  0  0  0  0  0  0  0  0  0  0  0
  -37.1021   67.8641   65.4575 N   0  0  0  0  0  0  0  0  0  0  0  0
  -36.7088   67.1883   66.0558 H   0  0  0  0  0  0  0  0  0  0  0  0
  -38.5569   67.9611   65.4013 C   0  0  0  0  0  0  0  0  0  0  0  0
  -39.0543   67.4852   64.0382 C   0  0  0  0  0  0  0  0  0  0  0  0
  -39.9453   68.0994   63.4465 O   0  0  0  0  0  0  0  0  0  0  0  0
  -38.1688   66.6629   63.4160 N   0  0  0  0  0  0  0  0  0  0  0  0
  -37.2732   66.4924   63.7874 H   0  0  0  0  0  0  0  0  0  0  0  0
  -38.6111   66.0453   62.1707 C   0  0  0  0  0  0  0  0  0  0  0  0
  -38.5564   64.5252   62.2993 C   0  0  0  0  0  0  0  0  0  0  0  0
  -38.5682   63.8105   61.2942 O   0  0  0  0  0  0  0  0  0  0  0  0
  -38.0635   64.1379   63.4329 N   0  0  0  0  0  0  0  0  0  0  0  0
  -37.7238   64.8118   64.0651 H   0  0  0  0  0  0  0  0  0  0  0  0
  -38.0003   62.7252   63.7943 C   0  0  0  0  0  0  0  0  0  0  0  0
  -39.3066   62.2640   64.4359 C   0  0  0  0  0  0  0  0  0  0  0  0
  -39.4174   61.1180   64.8771 O   0  0  0  0  0  0  0  0  0  0  0  0
  -40.1209   63.1215   65.2004 N   0  0  0  0  0  0  0  0  0  0  0  0
  -39.7448   64.0078   65.4060 H   0  0  0  0  0  0  0  0  0  0  0  0
  -41.4572   62.8523   65.7247 C   0  0  0  0  0  0  0  0  0  0  0  0
  -42.4842   62.7660   64.5995 C   0  0  0  0  0  0  0  0  0  0  0  0
  -42.2039   63.1577   63.4644 O   0  0  0  0  0  0  0  0  0  0  0  0
  -43.2390   61.6336   64.5740 N   0  0  0  0  0  0  0  0  0  0  0  0
  -42.9733   60.9087   65.1849 H   0  0  0  0  0  0  0  0  0  0  0  0
  -44.4036   61.3892   63.7297 C   0  0  0  0  0  0  0  0  0  0  0  0
  -45.6571   61.2817   64.5953 C   0  0  0  0  0  0  0  0  0  0  0  0
  -45.6042   61.5087   65.8057 O   0  0  0  0  0  0  0  0  0  0  0  0
  -46.7358   61.7275   64.1876 N   0  0  0  0  0  0  0  0  0  0  0  0
  -46.6615   62.3192   63.4043 H   0  0  0  0  0  0  0  0  0  0  0  0
  -48.0998   61.5289   64.6659 C   0  0  0  0  0  0  0  0  0  0  0  0
  -48.7165   60.2733   64.0573 C   0  0  0  0  0  0  0  0  0  0  0  0
  -48.5016   59.1665   64.5551 O   0  0  0  0  0  0  0  0  0  0  0  0
  -48.9666   62.7470   64.3415 C   0  0  0  0  0  0  0  0  0  0  0  0
  -48.4526   63.5763   63.1755 C   0  0  0  0  0  0  0  0  0  0  0  0
  -48.9410   63.0355   61.8389 C   0  0  0  0  0  0  0  0  0  0  0  0
  -47.8350   62.5636   61.0108 N   0  0  0  0  0  0  0  0  0  0  0  0
  -48.7280   60.4642   60.6503 N   0  0  0  0  0  0  0  0  0  0  0  0
  -46.7062   61.0296   59.7284 N   0  0  0  0  0  0  0  0  0  0  0  0
  -47.7587   61.3533   60.4646 C   0  0  0  0  0  0  0  0  0  0  0  0
  -49.5129   60.6986   61.1964 H   0  0  0  0  0  0  0  0  0  0  0  0
  -48.6615   59.5710   60.2417 H   0  0  0  0  0  0  0  0  0  0  0  0
  -45.9843   61.6840   59.5870 H   0  0  0  0  0  0  0  0  0  0  0  0
  -46.6457   60.1346   59.3226 H   0  0  0  0  0  0  0  0  0  0  0  0
  -44.2312   60.1094   62.8802 C   0  0  0  0  0  0  0  0  0  0  0  0
  -45.5696   59.3975   62.6979 C   0  0  0  0  0  0  0  0  0  0  0  0
  -43.6128   60.4485   61.5248 C   0  0  0  0  0  0  0  0  0  0  0  0
  -41.8677   63.9315   66.7300 C   0  0  0  0  0  0  0  0  0  0  0  0
  -43.3570   64.2416   66.7251 C   0  0  0  0  0  0  0  0  0  0  0  0
  -43.7220   65.4487   67.5740 C   0  0  0  0  0  0  0  0  0  0  0  0
  -43.4400   65.4419   68.7937 O   0  0  0  0  0  0  0  0  0  0  0  0
  -44.2971   66.4096   67.0149 O   0  0  0  0  0  0  0  0  0  0  0  0
  -44.4890   66.3718   66.0986 H   0  0  0  0  0  0  0  0  0  0  0  0
  -36.8278   62.4666   64.7431 C   0  0  0  0  0  0  0  0  0  0  0  0
  -35.9698   63.6980   64.9738 C   0  0  0  0  0  0  0  0  0  0  0  0
  -36.4316   64.6460   65.6459 O   0  0  0  0  0  0  0  0  0  0  0  0
  -34.8237   63.7228   64.4759 O   0  0  0  0  0  0  0  0  0  0  0  0
  -34.5132   62.9922   63.9781 H   0  0  0  0  0  0  0  0  0  0  0  0
  -37.7539   66.5128   60.9726 C   0  0  0  0  0  0  0  0  0  0  0  0
  -38.3780   67.7458   60.3111 C   0  0  0  0  0  0  0  0  0  0  0  0
  -36.3177   66.8011   61.4240 C   0  0  0  0  0  0  0  0  0  0  0  0
  -35.4760   67.5284   60.3836 C   0  0  0  0  0  0  0  0  0  0  0  0
  -39.0397   69.4042   65.6704 C   0  0  0  0  0  0  0  0  0  0  0  0
  -40.5296   69.4212   66.0063 C   0  0  0  0  0  0  0  0  0  0  0  0
  -38.2279   70.0359   66.8003 C   0  0  0  0  0  0  0  0  0  0  0  0
  -33.9785   68.7984   63.6500 C   0  0  0  0  0  0  0  0  0  0  0  0
  -33.1689   70.0855   63.7619 C   0  0  0  0  0  0  0  0  0  0  0  0
  -33.0900   67.7112   63.3642 O   0  0  0  0  0  0  0  0  0  0  0  0
  -32.4480   67.6200   64.0856 H   0  0  0  0  0  0  0  0  0  0  0  0
 42 43  1  0  0  0
 49 47  1  0  0  0
 43 38  1  0  0  0
 43 44  1  0  0  0
 47 48  1  0  0  0
 47 37  1  0  0  0
 40 38  1  0  0  0
 40 37  1  0  0  0
 38 39  2  0  0  0
 37 33  1  0  0  0
 33 34  2  0  0  0
 33 35  1  0  0  0
 35 32  1  0  0  0
 55 53  1  0  0  0
 55 56  2  0  0  0
 53 51  2  0  0  0
 56 54  1  0  0  0
 59 57  1  0  0  0
 32 28  1  0  0  0
 32 50  1  0  0  0
 29 28  2  0  0  0
 51 50  1  0  0  0
 51 52  1  0  0  0
 28 30  1  0  0  0
 54 52  2  0  0  0
 30 27  1  0  0  0
 57 27  1  0  0  0
 57 58  1  0  0  0
 27 23  1  0  0  0
 23 25  1  0  0  0
 23 24  2  0  0  0
 25 22  1  0  0  0
 68 66  1  0  0  0
 67 66  1  0  0  0
 66 65  1  0  0  0
 22 60  1  0  0  0
 22 18  1  0  0  0
 60 61  1  0  0  0
 19 18  2  0  0  0
 18 20  1  0  0  0
 20 17  1  0  0  0
 65 17  1  0  0  0
 17 13  1  0  0  0
 61 63  2  0  0  0
 61 62  1  0  0  0
 13 15  1  0  0  0
 13 14  2  0  0  0
 15 12  1  0  0  0
  6  5  2  0  0  0
 12 69  1  0  0  0
 12  5  1  0  0  0
 70 69  1  0  0  0
 70 71  1  0  0  0
 73 71  2  0  0  0
142140  1  0  0  0
 71 72  1  0  0  0
  5  7  1  0  0  0
140141  1  0  0  0
140 75  1  0  0  0
  7  8  1  0  0  0
  7 11  1  0  0  0
  3 75  1  0  0  0
  3  1  1  0  0  0
  8  1  1  0  0  0
  8  9  1  0  0  0
 11 10  1  0  0  0
136135  1  0  0  0
 75 76  1  0  0  0
  1  2  2  0  0  0
  9 10  1  0  0  0
135133  1  0  0  0
 77 76  2  0  0  0
 76 78  1  0  0  0
133134  1  0  0  0
133 85  1  0  0  0
 78 80  1  0  0  0
 83 85  1  0  0  0
 83 81  1  0  0  0
 85 86  1  0  0  0
 82 81  2  0  0  0
 81 80  1  0  0  0
 80137  1  0  0  0
 86 88  1  0  0  0
 86 87  2  0  0  0
137139  1  0  0  0
137138  1  0  0  0
 88 90  1  0  0  0
 92 91  2  0  0  0
121119  1  0  0  0
 91 90  1  0  0  0
 91 93  1  0  0  0
 90128  1  0  0  0
 93 95  1  0  0  0
 95122  1  0  0  0
 95 96  1  0  0  0
123122  1  0  0  0
123124  1  0  0  0
128129  1  0  0  0
119120  1  0  0  0
119100  1  0  0  0
124125  2  0  0  0
124126  1  0  0  0
 98 96  1  0  0  0
 98100  1  0  0  0
 96 97  2  0  0  0
100101  1  0  0  0
102101  2  0  0  0
129130  2  0  0  0
129131  1  0  0  0
101103  1  0  0  0
107106  2  0  0  0
103105  1  0  0  0
106105  1  0  0  0
105108  1  0  0  0
108109  1  0  0  0
109110  1  0  0  0
110111  1  0  0  0
111114  2  0  0  0
114113  1  0  0  0
114112  1  0  0  0
 42 45  1  0  0  0
 42 46  1  0  0  0
 40 41  1  0  0  0
 35 36  1  0  0  0
 30 31  1  0  0  0
 25 26  1  0  0  0
 62 64  1  0  0  0
 20 21  1  0  0  0
 15 16  1  0  0  0
 72 74  1  0  0  0
  3  4  1  0  0  0
142143  1  0  0  0
 78 79  1  0  0  0
 83 84  1  0  0  0
 88 89  1  0  0  0
131132  1  0  0  0
 93 94  1  0  0  0
126127  1  0  0  0
 98 99  1  0  0  0
103104  1  0  0  0
112115  1  0  0  0
112116  1  0  0  0
113117  1  0  0  0
113118  1  0  0  0
M  END
> <MODEL>
    1                                                                     

> <minimizedAffinity>
-8.57443

> <CNNscore>
0.1542437077

> <CNNaffinity>
7.5888338089

> <CNN_VS>
1.1705298424

> <CNNaffinity_variance>
2.0195739269

$$$$



143144  0  0  0  0  0  0  0  0999 V2000
  -33.7250   66.2575   65.4846 C   0  0  0  0  0  0  0  0  0  0  0  0
  -32.8604   67.1343   65.4179 O   0  0  0  0  0  0  0  0  0  0  0  0
  -34.3914   66.1110   64.4841 N   0  0  0  0  0  0  0  0  0  0  0  0
  -34.6635   65.2129   64.1865 H   0  0  0  0  0  0  0  0  0  0  0  0
  -31.3668   64.2664   65.2339 C   0  0  0  0  0  0  0  0  0  0  0  0
  -31.9662   64.1004   64.1696 O   0  0  0  0  0  0  0  0  0  0  0  0
  -32.0607   64.6131   66.3398 N   0  0  0  0  0  0  0  0  0  0  0  0
  -33.4754   64.9923   66.3029 C   0  0  0  0  0  0  0  0  0  0  0  0
  -33.8186   65.2197   67.7775 C   0  0  0  0  0  0  0  0  0  0  0  0
  -32.4966   65.3806   68.4562 C   0  0  0  0  0  0  0  0  0  0  0  0
  -31.4323   64.7891   67.5767 C   0  0  0  0  0  0  0  0  0  0  0  0
  -29.9017   63.8609   65.3695 C   0  0  0  0  0  0  0  0  0  0  0  0
  -30.2104   61.5130   65.3398 C   0  0  0  0  0  0  0  0  0  0  0  0
  -30.4317   61.4757   66.5523 O   0  0  0  0  0  0  0  0  0  0  0  0
  -29.6659   62.5362   64.8026 N   0  0  0  0  0  0  0  0  0  0  0  0
  -29.0903   62.4321   64.0107 H   0  0  0  0  0  0  0  0  0  0  0  0
  -30.0936   60.2211   64.5362 C   0  0  0  0  0  0  0  0  0  0  0  0
  -27.9368   60.4103   63.4076 C   0  0  0  0  0  0  0  0  0  0  0  0
  -28.5142   60.9257   62.4490 O   0  0  0  0  0  0  0  0  0  0  0  0
  -28.6960   59.8436   64.3580 N   0  0  0  0  0  0  0  0  0  0  0  0
  -28.3019   59.1598   64.9465 H   0  0  0  0  0  0  0  0  0  0  0  0
  -26.4615   60.0285   63.3097 C   0  0  0  0  0  0  0  0  0  0  0  0
  -25.5847   62.2843   63.8898 C   0  0  0  0  0  0  0  0  0  0  0  0
  -26.4757   62.5868   64.6858 O   0  0  0  0  0  0  0  0  0  0  0  0
  -25.6288   61.2046   63.0744 N   0  0  0  0  0  0  0  0  0  0  0  0
  -25.0619   61.2130   62.2696 H   0  0  0  0  0  0  0  0  0  0  0  0
  -24.5255   63.3074   63.4843 C   0  0  0  0  0  0  0  0  0  0  0  0
  -25.2583   65.2554   62.3231 C   0  0  0  0  0  0  0  0  0  0  0  0
  -24.5033   65.0126   61.3794 O   0  0  0  0  0  0  0  0  0  0  0  0
  -25.1168   64.6407   63.4446 N   0  0  0  0  0  0  0  0  0  0  0  0
  -25.4089   65.0721   64.2800 H   0  0  0  0  0  0  0  0  0  0  0  0
  -26.0046   66.5814   62.3963 C   0  0  0  0  0  0  0  0  0  0  0  0
  -25.4495   68.6558   63.4917 C   0  0  0  0  0  0  0  0  0  0  0  0
  -26.6459   68.9457   63.5615 O   0  0  0  0  0  0  0  0  0  0  0  0
  -25.1011   67.6634   62.7712 N   0  0  0  0  0  0  0  0  0  0  0  0
  -24.1712   67.6254   62.4502 H   0  0  0  0  0  0  0  0  0  0  0  0
  -24.3787   69.6893   63.8349 C   0  0  0  0  0  0  0  0  0  0  0  0
  -24.6487   71.6878   62.5600 C   0  0  0  0  0  0  0  0  0  0  0  0
  -23.5153   71.4288   62.1475 O   0  0  0  0  0  0  0  0  0  0  0  0
  -24.9046   71.0337   63.6257 N   0  0  0  0  0  0  0  0  0  0  0  0
  -25.4682   71.4448   64.3205 H   0  0  0  0  0  0  0  0  0  0  0  0
  -24.4884   73.8683   61.4286 N   0  0  0  0  0  0  0  0  0  0  0  0
  -25.2198   73.0961   62.4292 C   0  0  0  0  0  0  0  0  0  0  0  0
  -26.7036   73.0347   62.0727 C   0  0  0  0  0  0  0  0  0  0  0  0
  -23.5003   73.9006   61.6797 H   0  0  0  0  0  0  0  0  0  0  0  0
  -24.8611   74.8171   61.3922 H   0  0  0  0  0  0  0  0  0  0  0  0
  -23.8920   69.4897   65.2876 C   0  0  0  0  0  0  0  0  0  0  0  0
  -22.5401   68.7792   65.3115 C   0  0  0  0  0  0  0  0  0  0  0  0
  -23.8057   70.8335   66.0097 C   0  0  0  0  0  0  0  0  0  0  0  0
  -26.6760   66.8819   61.0521 C   0  0  0  0  0  0  0  0  0  0  0  0
  -28.1406   66.5378   61.0145 C   0  0  0  0  0  0  0  0  0  0  0  0
  -29.0984   67.5319   60.8613 C   0  0  0  0  0  0  0  0  0  0  0  0
  -28.5587   65.2191   61.1321 C   0  0  0  0  0  0  0  0  0  0  0  0
  -30.4542   67.2169   60.8262 C   0  0  0  0  0  0  0  0  0  0  0  0
  -29.9118   64.8960   61.0988 C   0  0  0  0  0  0  0  0  0  0  0  0
  -30.8588   65.8961   60.9466 C   0  0  0  0  0  0  0  0  0  0  0  0
  -23.3256   63.2468   64.4563 C   0  0  0  0  0  0  0  0  0  0  0  0
  -22.4406   62.0409   64.1467 C   0  0  0  0  0  0  0  0  0  0  0  0
  -22.5167   64.5405   64.3855 C   0  0  0  0  0  0  0  0  0  0  0  0
  -26.0194   59.3044   64.5827 C   0  0  0  0  0  0  0  0  0  0  0  0
  -24.5589   58.8876   64.5516 C   0  0  0  0  0  0  0  0  0  0  0  0
  -23.9858   58.5956   65.6231 O   0  0  0  0  0  0  0  0  0  0  0  0
  -23.9760   58.8546   63.4468 O   0  0  0  0  0  0  0  0  0  0  0  0
  -24.4574   58.6325   66.4319 H   0  0  0  0  0  0  0  0  0  0  0  0
  -30.8662   59.0995   65.2365 C   0  0  0  0  0  0  0  0  0  0  0  0
  -31.7453   58.2227   64.3436 C   0  0  0  0  0  0  0  0  0  0  0  0
  -32.3703   59.0588   63.2310 C   0  0  0  0  0  0  0  0  0  0  0  0
  -30.9348   57.0694   63.7615 C   0  0  0  0  0  0  0  0  0  0  0  0
  -29.0041   64.9024   64.6954 C   0  0  0  0  0  0  0  0  0  0  0  0
  -29.6479   66.2752   64.5647 C   0  0  0  0  0  0  0  0  0  0  0  0
  -29.2763   67.2223   65.6951 C   0  0  0  0  0  0  0  0  0  0  0  0
  -30.1888   67.7355   66.3818 O   0  0  0  0  0  0  0  0  0  0  0  0
  -28.0625   67.4546   65.8929 O   0  0  0  0  0  0  0  0  0  0  0  0
  -31.0847   67.5323   66.1973 H   0  0  0  0  0  0  0  0  0  0  0  0
  -34.7809   67.2974   63.7310 C   0  0  0  0  0  0  0  0  0  0  0  0
  -36.1466   67.8043   64.1873 C   0  0  0  0  0  0  0  0  0  0  0  0
  -36.8213   68.5298   63.4549 O   0  0  0  0  0  0  0  0  0  0  0  0
  -36.7619   67.1631   65.2504 N   0  0  0  0  0  0  0  0  0  0  0  0
  -36.3180   66.3698   65.6284 H   0  0  0  0  0  0  0  0  0  0  0  0
  -38.0246   67.5867   65.8463 C   0  0  0  0  0  0  0  0  0  0  0  0
  -39.1713   67.3146   64.8753 C   0  0  0  0  0  0  0  0  0  0  0  0
  -39.9133   68.2294   64.5093 O   0  0  0  0  0  0  0  0  0  0  0  0
  -39.0045   66.1592   64.1791 N   0  0  0  0  0  0  0  0  0  0  0  0
  -38.1768   65.6304   64.2465 H   0  0  0  0  0  0  0  0  0  0  0  0
  -40.1124   65.7413   63.3272 C   0  0  0  0  0  0  0  0  0  0  0  0
  -40.4458   64.2758   63.5944 C   0  0  0  0  0  0  0  0  0  0  0  0
  -41.1662   63.6452   62.8167 O   0  0  0  0  0  0  0  0  0  0  0  0
  -39.5897   63.7047   64.3810 N   0  0  0  0  0  0  0  0  0  0  0  0
  -38.8003   64.2107   64.6813 H   0  0  0  0  0  0  0  0  0  0  0  0
  -39.7686   62.3283   64.8325 C   0  0  0  0  0  0  0  0  0  0  0  0
  -40.8107   62.2468   65.9451 C   0  0  0  0  0  0  0  0  0  0  0  0
  -40.4940   62.4625   67.1170 O   0  0  0  0  0  0  0  0  0  0  0  0
  -42.1501   62.6405   65.7609 N   0  0  0  0  0  0  0  0  0  0  0  0
  -42.3572   63.0892   64.9093 H   0  0  0  0  0  0  0  0  0  0  0  0
  -43.2686   62.4623   66.6829 C   0  0  0  0  0  0  0  0  0  0  0  0
  -44.1425   61.2820   66.2688 C   0  0  0  0  0  0  0  0  0  0  0  0
  -43.6317   60.2450   65.8396 O   0  0  0  0  0  0  0  0  0  0  0  0
  -45.2108   61.0270   67.0726 N   0  0  0  0  0  0  0  0  0  0  0  0
  -45.2567   61.5237   67.9214 H   0  0  0  0  0  0  0  0  0  0  0  0
  -46.2946   60.0893   66.7992 C   0  0  0  0  0  0  0  0  0  0  0  0
  -47.3532   60.7615   65.9276 C   0  0  0  0  0  0  0  0  0  0  0  0
  -47.5409   61.9778   65.9957 O   0  0  0  0  0  0  0  0  0  0  0  0
  -47.4796   60.4390   64.7408 N   0  0  0  0  0  0  0  0  0  0  0  0
  -46.7321   59.9086   64.3815 H   0  0  0  0  0  0  0  0  0  0  0  0
  -48.5443   60.7080   63.7802 C   0  0  0  0  0  0  0  0  0  0  0  0
  -49.5879   59.5955   63.7931 C   0  0  0  0  0  0  0  0  0  0  0  0
  -49.3441   58.5153   64.3342 O   0  0  0  0  0  0  0  0  0  0  0  0
  -47.9700   60.8698   62.3716 C   0  0  0  0  0  0  0  0  0  0  0  0
  -46.5440   61.3963   62.3440 C   0  0  0  0  0  0  0  0  0  0  0  0
  -45.5865   60.4010   61.7037 C   0  0  0  0  0  0  0  0  0  0  0  0
  -44.4833   60.0614   62.5977 N   0  0  0  0  0  0  0  0  0  0  0  0
  -42.8234   60.4947   61.0511 N   0  0  0  0  0  0  0  0  0  0  0  0
  -42.2748   59.7825   63.1604 N   0  0  0  0  0  0  0  0  0  0  0  0
  -43.1959   60.1137   62.2679 C   0  0  0  0  0  0  0  0  0  0  0  0
  -43.5030   60.7421   60.3832 H   0  0  0  0  0  0  0  0  0  0  0  0
  -41.8677   60.5297   60.8172 H   0  0  0  0  0  0  0  0  0  0  0  0
  -42.5442   59.4993   64.0640 H   0  0  0  0  0  0  0  0  0  0  0  0
  -41.3208   59.8196   62.9202 H   0  0  0  0  0  0  0  0  0  0  0  0
  -46.9343   59.5637   68.1045 C   0  0  0  0  0  0  0  0  0  0  0  0
  -46.2264   58.2977   68.5815 C   0  0  0  0  0  0  0  0  0  0  0  0
  -46.8982   60.6410   69.1873 C   0  0  0  0  0  0  0  0  0  0  0  0
  -44.1105   63.7388   66.7597 C   0  0  0  0  0  0  0  0  0  0  0  0
  -43.7539   64.7748   65.7045 C   0  0  0  0  0  0  0  0  0  0  0  0
  -42.8314   65.8665   66.2222 C   0  0  0  0  0  0  0  0  0  0  0  0
  -41.6949   65.5530   66.6435 O   0  0  0  0  0  0  0  0  0  0  0  0
  -43.2494   67.0462   66.2085 O   0  0  0  0  0  0  0  0  0  0  0  0
  -44.1078   67.2353   65.8840 H   0  0  0  0  0  0  0  0  0  0  0  0
  -38.4382   61.7448   65.3135 C   0  0  0  0  0  0  0  0  0  0  0  0
  -37.2587   62.1776   64.4608 C   0  0  0  0  0  0  0  0  0  0  0  0
  -36.3924   62.9316   64.9556 O   0  0  0  0  0  0  0  0  0  0  0  0
  -37.1966   61.7649   63.2828 O   0  0  0  0  0  0  0  0  0  0  0  0
  -37.8657   61.2007   62.9482 H   0  0  0  0  0  0  0  0  0  0  0  0
  -39.7857   65.9524   61.8314 C   0  0  0  0  0  0  0  0  0  0  0  0
  -40.2669   67.3295   61.3632 C   0  0  0  0  0  0  0  0  0  0  0  0
  -38.2823   65.7841   61.5844 C   0  0  0  0  0  0  0  0  0  0  0  0
  -37.7231   66.7124   60.5141 C   0  0  0  0  0  0  0  0  0  0  0  0
  -37.9962   69.0831   66.2311 C   0  0  0  0  0  0  0  0  0  0  0  0
  -39.2691   69.4721   66.9804 C   0  0  0  0  0  0  0  0  0  0  0  0
  -36.7610   69.3929   67.0755 C   0  0  0  0  0  0  0  0  0  0  0  0
  -34.8155   67.0126   62.2180 C   0  0  0  0  0  0  0  0  0  0  0  0
  -33.9634   68.0164   61.4492 C   0  0  0  0  0  0  0  0  0  0  0  0
  -34.3154   65.6922   61.9745 O   0  0  0  0  0  0  0  0  0  0  0  0
  -33.3980   65.6317   62.2839 H   0  0  0  0  0  0  0  0  0  0  0  0
 42 43  1  0  0  0
 49 47  1  0  0  0
 43 38  1  0  0  0
 43 44  1  0  0  0
 47 48  1  0  0  0
 47 37  1  0  0  0
 40 38  1  0  0  0
 40 37  1  0  0  0
 38 39  2  0  0  0
 37 33  1  0  0  0
 33 34  2  0  0  0
 33 35  1  0  0  0
 35 32  1  0  0  0
 55 53  1  0  0  0
 55 56  2  0  0  0
 53 51  2  0  0  0
 56 54  1  0  0  0
 59 57  1  0  0  0
 32 28  1  0  0  0
 32 50  1  0  0  0
 29 28  2  0  0  0
 51 50  1  0  0  0
 51 52  1  0  0  0
 28 30  1  0  0  0
 54 52  2  0  0  0
 30 27  1  0  0  0
 57 27  1  0  0  0
 57 58  1  0  0  0
 27 23  1  0  0  0
 23 25  1  0  0  0
 23 24  2  0  0  0
 25 22  1  0  0  0
 68 66  1  0  0  0
 67 66  1  0  0  0
 66 65  1  0  0  0
 22 60  1  0  0  0
 22 18  1  0  0  0
 60 61  1  0  0  0
 19 18  2  0  0  0
 18 20  1  0  0  0
 20 17  1  0  0  0
 65 17  1  0  0  0
 17 13  1  0  0  0
 61 63  2  0  0  0
 61 62  1  0  0  0
 13 15  1  0  0  0
 13 14  2  0  0  0
 15 12  1  0  0  0
  6  5  2  0  0  0
 12 69  1  0  0  0
 12  5  1  0  0  0
 70 69  1  0  0  0
 70 71  1  0  0  0
 73 71  2  0  0  0
142140  1  0  0  0
 71 72  1  0  0  0
  5  7  1  0  0  0
140141  1  0  0  0
140 75  1  0  0  0
  7  8  1  0  0  0
  7 11  1  0  0  0
  3 75  1  0  0  0
  3  1  1  0  0  0
  8  1  1  0  0  0
  8  9  1  0  0  0
 11 10  1  0  0  0
136135  1  0  0  0
 75 76  1  0  0  0
  1  2  2  0  0  0
  9 10  1  0  0  0
135133  1  0  0  0
 77 76  2  0  0  0
 76 78  1  0  0  0
133134  1  0  0  0
133 85  1  0  0  0
 78 80  1  0  0  0
 83 85  1  0  0  0
 83 81  1  0  0  0
 85 86  1  0  0  0
 82 81  2  0  0  0
 81 80  1  0  0  0
 80137  1  0  0  0
 86 88  1  0  0  0
 86 87  2  0  0  0
137139  1  0  0  0
137138  1  0  0  0
 88 90  1  0  0  0
 92 91  2  0  0  0
121119  1  0  0  0
 91 90  1  0  0  0
 91 93  1  0  0  0
 90128  1  0  0  0
 93 95  1  0  0  0
 95122  1  0  0  0
 95 96  1  0  0  0
123122  1  0  0  0
123124  1  0  0  0
128129  1  0  0  0
119120  1  0  0  0
119100  1  0  0  0
124125  2  0  0  0
124126  1  0  0  0
 98 96  1  0  0  0
 98100  1  0  0  0
 96 97  2  0  0  0
100101  1  0  0  0
102101  2  0  0  0
129130  2  0  0  0
129131  1  0  0  0
101103  1  0  0  0
107106  2  0  0  0
103105  1  0  0  0
106105  1  0  0  0
105108  1  0  0  0
108109  1  0  0  0
109110  1  0  0  0
110111  1  0  0  0
111114  2  0  0  0
114113  1  0  0  0
114112  1  0  0  0
 42 45  1  0  0  0
 42 46  1  0  0  0
 40 41  1  0  0  0
 35 36  1  0  0  0
 30 31  1  0  0  0
 25 26  1  0  0  0
 62 64  1  0  0  0
 20 21  1  0  0  0
 15 16  1  0  0  0
 72 74  1  0  0  0
  3  4  1  0  0  0
142143  1  0  0  0
 78 79  1  0  0  0
 83 84  1  0  0  0
 88 89  1  0  0  0
131132  1  0  0  0
 93 94  1  0  0  0
126127  1  0  0  0
 98 99  1  0  0  0
103104  1  0  0  0
112115  1  0  0  0
112116  1  0  0  0
113117  1  0  0  0
113118  1  0  0  0
M  END
> <MODEL>
    1                                                                     

> <minimizedAffinity>
-9.30672

> <CNNscore>
0.1533467323

> <CNNaffinity>
7.2833733559

> <CNN_VS>
1.1168814898

> <CNNaffinity_variance>
2.1176190376

$$$$



143144  0  0  0  0  0  0  0  0999 V2000
  -34.2924   66.0139   65.4426 C   0  0  0  0  0  0  0  0  0  0  0  0
  -33.8823   67.1513   65.6849 O   0  0  0  0  0  0  0  0  0  0  0  0
  -34.5243   65.7851   64.2762 N   0  0  0  0  0  0  0  0  0  0  0  0
  -34.3080   64.9096   63.8813 H   0  0  0  0  0  0  0  0  0  0  0  0
  -31.5552   64.5806   65.2378 C   0  0  0  0  0  0  0  0  0  0  0  0
  -32.0821   64.2979   64.1598 O   0  0  0  0  0  0  0  0  0  0  0  0
  -32.3308   64.7604   66.3291 N   0  0  0  0  0  0  0  0  0  0  0  0
  -33.7929   64.8257   66.2619 C   0  0  0  0  0  0  0  0  0  0  0  0
  -34.2081   64.9616   67.7292 C   0  0  0  0  0  0  0  0  0  0  0  0
  -32.9667   65.3984   68.4378 C   0  0  0  0  0  0  0  0  0  0  0  0
  -31.7815   65.0577   67.5803 C   0  0  0  0  0  0  0  0  0  0  0  0
  -30.0404   64.4996   65.4048 C   0  0  0  0  0  0  0  0  0  0  0  0
  -29.5413   62.1845   65.4019 C   0  0  0  0  0  0  0  0  0  0  0  0
  -29.4668   62.1474   66.6321 O   0  0  0  0  0  0  0  0  0  0  0  0
  -29.5032   63.2970   64.7748 N   0  0  0  0  0  0  0  0  0  0  0  0
  -29.1138   63.3430   63.8718 H   0  0  0  0  0  0  0  0  0  0  0  0
  -29.1760   60.9594   64.5687 C   0  0  0  0  0  0  0  0  0  0  0  0
  -26.9003   61.3545   63.7771 C   0  0  0  0  0  0  0  0  0  0  0  0
  -27.3715   61.8200   62.7384 O   0  0  0  0  0  0  0  0  0  0  0  0
  -27.7386   60.7141   64.6066 N   0  0  0  0  0  0  0  0  0  0  0  0
  -27.3764   60.0661   65.2533 H   0  0  0  0  0  0  0  0  0  0  0  0
  -25.3982   61.1115   63.9062 C   0  0  0  0  0  0  0  0  0  0  0  0
  -23.6456   62.7191   63.1728 C   0  0  0  0  0  0  0  0  0  0  0  0
  -22.9649   61.9124   62.5364 O   0  0  0  0  0  0  0  0  0  0  0  0
  -24.6672   62.3727   63.9906 N   0  0  0  0  0  0  0  0  0  0  0  0
  -24.9351   63.0135   64.6883 H   0  0  0  0  0  0  0  0  0  0  0  0
  -23.1554   64.1497   63.3877 C   0  0  0  0  0  0  0  0  0  0  0  0
  -24.6823   65.5500   62.2097 C   0  0  0  0  0  0  0  0  0  0  0  0
  -23.8933   65.6698   61.2702 O   0  0  0  0  0  0  0  0  0  0  0  0
  -24.2852   65.0715   63.3362 N   0  0  0  0  0  0  0  0  0  0  0  0
  -24.7460   65.3286   64.1674 H   0  0  0  0  0  0  0  0  0  0  0  0
  -25.9478   66.3959   62.2706 C   0  0  0  0  0  0  0  0  0  0  0  0
  -25.6680   68.0224   64.0278 C   0  0  0  0  0  0  0  0  0  0  0  0
  -26.3136   67.3090   64.7987 O   0  0  0  0  0  0  0  0  0  0  0  0
  -25.6551   67.7282   62.7873 N   0  0  0  0  0  0  0  0  0  0  0  0
  -25.4356   68.4392   62.1428 H   0  0  0  0  0  0  0  0  0  0  0  0
  -25.2988   69.4521   64.4178 C   0  0  0  0  0  0  0  0  0  0  0  0
  -26.9442   70.6319   65.6799 C   0  0  0  0  0  0  0  0  0  0  0  0
  -26.8026   71.5012   64.8161 O   0  0  0  0  0  0  0  0  0  0  0  0
  -25.9660   69.8121   65.6640 N   0  0  0  0  0  0  0  0  0  0  0  0
  -25.6557   69.4149   66.5097 H   0  0  0  0  0  0  0  0  0  0  0  0
  -29.0203   70.7838   66.9941 N   0  0  0  0  0  0  0  0  0  0  0  0
  -27.5726   70.9715   67.0276 C   0  0  0  0  0  0  0  0  0  0  0  0
  -26.9514   70.1180   68.1314 C   0  0  0  0  0  0  0  0  0  0  0  0
  -29.4207   71.3592   66.2531 H   0  0  0  0  0  0  0  0  0  0  0  0
  -29.4197   71.0587   67.8915 H   0  0  0  0  0  0  0  0  0  0  0  0
  -23.7645   69.5931   64.5340 C   0  0  0  0  0  0  0  0  0  0  0  0
  -23.2682   69.0184   65.8593 C   0  0  0  0  0  0  0  0  0  0  0  0
  -23.0757   68.9032   63.3575 C   0  0  0  0  0  0  0  0  0  0  0  0
  -26.5877   66.4858   60.8812 C   0  0  0  0  0  0  0  0  0  0  0  0
  -28.0290   66.0539   60.8474 C   0  0  0  0  0  0  0  0  0  0  0  0
  -28.4180   64.8397   61.3985 C   0  0  0  0  0  0  0  0  0  0  0  0
  -28.9946   66.8634   60.2644 C   0  0  0  0  0  0  0  0  0  0  0  0
  -29.7505   64.4371   61.3688 C   0  0  0  0  0  0  0  0  0  0  0  0
  -30.3283   66.4680   60.2299 C   0  0  0  0  0  0  0  0  0  0  0  0
  -30.7049   65.2540   60.7819 C   0  0  0  0  0  0  0  0  0  0  0  0
  -22.3951   64.2573   64.7289 C   0  0  0  0  0  0  0  0  0  0  0  0
  -21.2467   63.2514   64.7805 C   0  0  0  0  0  0  0  0  0  0  0  0
  -21.8753   65.6788   64.9340 C   0  0  0  0  0  0  0  0  0  0  0  0
  -25.1087   60.2410   65.1303 C   0  0  0  0  0  0  0  0  0  0  0  0
  -24.2353   59.0398   64.8113 C   0  0  0  0  0  0  0  0  0  0  0  0
  -23.9620   58.2267   65.7202 O   0  0  0  0  0  0  0  0  0  0  0  0
  -23.8140   58.9079   63.6423 O   0  0  0  0  0  0  0  0  0  0  0  0
  -24.2973   58.3604   66.5848 H   0  0  0  0  0  0  0  0  0  0  0  0
  -29.9419   59.7350   65.0782 C   0  0  0  0  0  0  0  0  0  0  0  0
  -31.1570   59.3054   64.2549 C   0  0  0  0  0  0  0  0  0  0  0  0
  -31.4952   60.3694   63.2152 C   0  0  0  0  0  0  0  0  0  0  0  0
  -30.9012   57.9591   63.5857 C   0  0  0  0  0  0  0  0  0  0  0  0
  -29.3803   65.7528   64.8225 C   0  0  0  0  0  0  0  0  0  0  0  0
  -30.2935   66.9698   64.7919 C   0  0  0  0  0  0  0  0  0  0  0  0
  -30.2096   67.8148   66.0536 C   0  0  0  0  0  0  0  0  0  0  0  0
  -31.2005   68.5016   66.3913 O   0  0  0  0  0  0  0  0  0  0  0  0
  -29.1427   67.7913   66.7076 O   0  0  0  0  0  0  0  0  0  0  0  0
  -31.9793   68.4882   65.8705 H   0  0  0  0  0  0  0  0  0  0  0  0
  -35.1316   66.8382   63.4708 C   0  0  0  0  0  0  0  0  0  0  0  0
  -36.5896   66.5099   63.1603 C   0  0  0  0  0  0  0  0  0  0  0  0
  -36.8936   65.4269   62.6576 O   0  0  0  0  0  0  0  0  0  0  0  0
  -37.5762   67.2703   63.7672 N   0  0  0  0  0  0  0  0  0  0  0  0
  -37.2954   67.9524   64.4192 H   0  0  0  0  0  0  0  0  0  0  0  0
  -39.0040   67.1262   63.5033 C   0  0  0  0  0  0  0  0  0  0  0  0
  -39.6080   66.1093   64.4691 C   0  0  0  0  0  0  0  0  0  0  0  0
  -38.8811   65.4149   65.1839 O   0  0  0  0  0  0  0  0  0  0  0  0
  -40.9131   66.3651   64.7495 N   0  0  0  0  0  0  0  0  0  0  0  0
  -41.3608   67.1800   64.4260 H   0  0  0  0  0  0  0  0  0  0  0  0
  -41.6177   65.3725   65.5533 C   0  0  0  0  0  0  0  0  0  0  0  0
  -41.8523   64.1103   64.7275 C   0  0  0  0  0  0  0  0  0  0  0  0
  -42.3234   64.1843   63.5900 O   0  0  0  0  0  0  0  0  0  0  0  0
  -41.1311   63.1113   65.1273 N   0  0  0  0  0  0  0  0  0  0  0  0
  -40.4786   63.2486   65.8516 H   0  0  0  0  0  0  0  0  0  0  0  0
  -41.2637   61.7869   64.5284 C   0  0  0  0  0  0  0  0  0  0  0  0
  -42.2913   60.9450   65.2806 C   0  0  0  0  0  0  0  0  0  0  0  0
  -41.9280   60.0906   66.0920 O   0  0  0  0  0  0  0  0  0  0  0  0
  -43.5366   61.4571   65.6932 N   0  0  0  0  0  0  0  0  0  0  0  0
  -43.6657   62.4265   65.5804 H   0  0  0  0  0  0  0  0  0  0  0  0
  -44.6591   60.7209   66.2684 C   0  0  0  0  0  0  0  0  0  0  0  0
  -45.4485   59.9865   65.1888 C   0  0  0  0  0  0  0  0  0  0  0  0
  -44.9046   59.6513   64.1341 O   0  0  0  0  0  0  0  0  0  0  0  0
  -46.3193   59.0399   65.6342 N   0  0  0  0  0  0  0  0  0  0  0  0
  -46.2711   58.8063   66.5894 H   0  0  0  0  0  0  0  0  0  0  0  0
  -47.3172   58.3378   64.8344 C   0  0  0  0  0  0  0  0  0  0  0  0
  -48.1891   59.3476   64.0913 C   0  0  0  0  0  0  0  0  0  0  0  0
  -49.3995   59.1546   63.9613 O   0  0  0  0  0  0  0  0  0  0  0  0
  -48.0308   60.5602   64.2731 N   0  0  0  0  0  0  0  0  0  0  0  0
  -47.4820   60.7856   65.0588 H   0  0  0  0  0  0  0  0  0  0  0  0
  -48.5161   61.7153   63.5254 C   0  0  0  0  0  0  0  0  0  0  0  0
  -47.9506   61.7280   62.1087 C   0  0  0  0  0  0  0  0  0  0  0  0
  -48.6896   61.5502   61.1386 O   0  0  0  0  0  0  0  0  0  0  0  0
  -48.1511   63.0146   64.2457 C   0  0  0  0  0  0  0  0  0  0  0  0
  -49.3441   63.7464   64.8394 C   0  0  0  0  0  0  0  0  0  0  0  0
  -49.7650   64.9307   63.9805 C   0  0  0  0  0  0  0  0  0  0  0  0
  -51.1552   64.8178   63.5490 N   0  0  0  0  0  0  0  0  0  0  0  0
  -50.6595   63.8734   61.5003 N   0  0  0  0  0  0  0  0  0  0  0  0
  -52.8404   64.2627   62.0915 N   0  0  0  0  0  0  0  0  0  0  0  0
  -51.5489   64.3180   62.3810 C   0  0  0  0  0  0  0  0  0  0  0  0
  -49.6982   63.9117   61.7094 H   0  0  0  0  0  0  0  0  0  0  0  0
  -50.9616   63.5056   60.6385 H   0  0  0  0  0  0  0  0  0  0  0  0
  -53.5047   64.5905   62.7400 H   0  0  0  0  0  0  0  0  0  0  0  0
  -53.1359   63.8938   61.2280 H   0  0  0  0  0  0  0  0  0  0  0  0
  -48.1974   57.4139   65.7068 C   0  0  0  0  0  0  0  0  0  0  0  0
  -48.2764   56.0141   65.1021 C   0  0  0  0  0  0  0  0  0  0  0  0
  -47.6559   57.3539   67.1342 C   0  0  0  0  0  0  0  0  0  0  0  0
  -45.5812   61.6660   67.0432 C   0  0  0  0  0  0  0  0  0  0  0  0
  -46.1903   61.0446   68.2910 C   0  0  0  0  0  0  0  0  0  0  0  0
  -47.7059   61.1518   68.3368 C   0  0  0  0  0  0  0  0  0  0  0  0
  -48.3710   60.7994   67.3364 O   0  0  0  0  0  0  0  0  0  0  0  0
  -48.2336   61.5942   69.3820 O   0  0  0  0  0  0  0  0  0  0  0  0
  -47.6967   61.8464   70.1073 H   0  0  0  0  0  0  0  0  0  0  0  0
  -39.9114   61.0709   64.5061 C   0  0  0  0  0  0  0  0  0  0  0  0
  -38.7646   61.9833   64.1087 C   0  0  0  0  0  0  0  0  0  0  0  0
  -38.4906   62.1265   62.8969 O   0  0  0  0  0  0  0  0  0  0  0  0
  -38.1262   62.5608   65.0147 O   0  0  0  0  0  0  0  0  0  0  0  0
  -38.3620   62.4280   65.9118 H   0  0  0  0  0  0  0  0  0  0  0  0
  -42.9611   65.9242   66.0822 C   0  0  0  0  0  0  0  0  0  0  0  0
  -43.1558   67.3799   65.6459 C   0  0  0  0  0  0  0  0  0  0  0  0
  -44.1239   65.0482   65.6024 C   0  0  0  0  0  0  0  0  0  0  0  0
  -45.4749   65.4373   66.1884 C   0  0  0  0  0  0  0  0  0  0  0  0
  -39.2700   66.6969   62.0428 C   0  0  0  0  0  0  0  0  0  0  0  0
  -39.8592   65.2886   61.9928 C   0  0  0  0  0  0  0  0  0  0  0  0
  -40.2030   67.6932   61.3559 C   0  0  0  0  0  0  0  0  0  0  0  0
  -34.3595   67.0517   62.1556 C   0  0  0  0  0  0  0  0  0  0  0  0
  -33.0522   67.7976   62.3994 C   0  0  0  0  0  0  0  0  0  0  0  0
  -34.0678   65.7782   61.5673 O   0  0  0  0  0  0  0  0  0  0  0  0
  -33.5159   65.2604   62.1742 H   0  0  0  0  0  0  0  0  0  0  0  0
 42 43  1  0  0  0
 49 47  1  0  0  0
 43 38  1  0  0  0
 43 44  1  0  0  0
 47 48  1  0  0  0
 47 37  1  0  0  0
 40 38  1  0  0  0
 40 37  1  0  0  0
 38 39  2  0  0  0
 37 33  1  0  0  0
 33 34  2  0  0  0
 33 35  1  0  0  0
 35 32  1  0  0  0
 55 53  1  0  0  0
 55 56  2  0  0  0
 53 51  2  0  0  0
 56 54  1  0  0  0
 59 57  1  0  0  0
 32 28  1  0  0  0
 32 50  1  0  0  0
 29 28  2  0  0  0
 51 50  1  0  0  0
 51 52  1  0  0  0
 28 30  1  0  0  0
 54 52  2  0  0  0
 30 27  1  0  0  0
 57 27  1  0  0  0
 57 58  1  0  0  0
 27 23  1  0  0  0
 23 25  1  0  0  0
 23 24  2  0  0  0
 25 22  1  0  0  0
 68 66  1  0  0  0
 67 66  1  0  0  0
 66 65  1  0  0  0
 22 60  1  0  0  0
 22 18  1  0  0  0
 60 61  1  0  0  0
 19 18  2  0  0  0
 18 20  1  0  0  0
 20 17  1  0  0  0
 65 17  1  0  0  0
 17 13  1  0  0  0
 61 63  2  0  0  0
 61 62  1  0  0  0
 13 15  1  0  0  0
 13 14  2  0  0  0
 15 12  1  0  0  0
  6  5  2  0  0  0
 12 69  1  0  0  0
 12  5  1  0  0  0
 70 69  1  0  0  0
 70 71  1  0  0  0
 73 71  2  0  0  0
142140  1  0  0  0
 71 72  1  0  0  0
  5  7  1  0  0  0
140141  1  0  0  0
140 75  1  0  0  0
  7  8  1  0  0  0
  7 11  1  0  0  0
  3 75  1  0  0  0
  3  1  1  0  0  0
  8  1  1  0  0  0
  8  9  1  0  0  0
 11 10  1  0  0  0
136135  1  0  0  0
 75 76  1  0  0  0
  1  2  2  0  0  0
  9 10  1  0  0  0
135133  1  0  0  0
 77 76  2  0  0  0
 76 78  1  0  0  0
133134  1  0  0  0
133 85  1  0  0  0
 78 80  1  0  0  0
 83 85  1  0  0  0
 83 81  1  0  0  0
 85 86  1  0  0  0
 82 81  2  0  0  0
 81 80  1  0  0  0
 80137  1  0  0  0
 86 88  1  0  0  0
 86 87  2  0  0  0
137139  1  0  0  0
137138  1  0  0  0
 88 90  1  0  0  0
 92 91  2  0  0  0
121119  1  0  0  0
 91 90  1  0  0  0
 91 93  1  0  0  0
 90128  1  0  0  0
 93 95  1  0  0  0
 95122  1  0  0  0
 95 96  1  0  0  0
123122  1  0  0  0
123124  1  0  0  0
128129  1  0  0  0
119120  1  0  0  0
119100  1  0  0  0
124125  2  0  0  0
124126  1  0  0  0
 98 96  1  0  0  0
 98100  1  0  0  0
 96 97  2  0  0  0
100101  1  0  0  0
102101  2  0  0  0
129130  2  0  0  0
129131  1  0  0  0
101103  1  0  0  0
107106  2  0  0  0
103105  1  0  0  0
106105  1  0  0  0
105108  1  0  0  0
108109  1  0  0  0
109110  1  0  0  0
110111  1  0  0  0
111114  2  0  0  0
114113  1  0  0  0
114112  1  0  0  0
 42 45  1  0  0  0
 42 46  1  0  0  0
 40 41  1  0  0  0
 35 36  1  0  0  0
 30 31  1  0  0  0
 25 26  1  0  0  0
 62 64  1  0  0  0
 20 21  1  0  0  0
 15 16  1  0  0  0
 72 74  1  0  0  0
  3  4  1  0  0  0
142143  1  0  0  0
 78 79  1  0  0  0
 83 84  1  0  0  0
 88 89  1  0  0  0
131132  1  0  0  0
 93 94  1  0  0  0
126127  1  0  0  0
 98 99  1  0  0  0
103104  1  0  0  0
112115  1  0  0  0
112116  1  0  0  0
113117  1  0  0  0
113118  1  0  0  0
M  END
> <MODEL>
    1                                                                     

> <minimizedAffinity>
-9.25134

> <CNNscore>
0.1209608316

> <CNNaffinity>
6.8254356384

> <CNN_VS>
0.8256103992

> <CNNaffinity_variance>
1.3773392439

$$$$



143144  0  0  0  0  0  0  0  0999 V2000
  -32.3743   66.5247   60.6056 C   0  0  0  0  0  0  0  0  0  0  0  0
  -32.1114   67.0802   61.6747 O   0  0  0  0  0  0  0  0  0  0  0  0
  -33.0677   67.1650   59.8467 N   0  0  0  0  0  0  0  0  0  0  0  0
  -32.9018   67.1486   58.8764 H   0  0  0  0  0  0  0  0  0  0  0  0
  -29.5373   67.2474   59.5966 C   0  0  0  0  0  0  0  0  0  0  0  0
  -30.2608   67.8770   58.8223 O   0  0  0  0  0  0  0  0  0  0  0  0
  -29.9744   66.0769   60.1104 N   0  0  0  0  0  0  0  0  0  0  0  0
  -31.3508   65.6026   59.9462 C   0  0  0  0  0  0  0  0  0  0  0  0
  -31.3350   64.2307   60.6255 C   0  0  0  0  0  0  0  0  0  0  0  0
  -30.1084   64.2423   61.4794 C   0  0  0  0  0  0  0  0  0  0  0  0
  -29.1832   65.3119   60.9732 C   0  0  0  0  0  0  0  0  0  0  0  0
  -28.0789   67.6506   59.7955 C   0  0  0  0  0  0  0  0  0  0  0  0
  -26.9369   68.3170   61.7603 C   0  0  0  0  0  0  0  0  0  0  0  0
  -26.1396   69.0088   61.1231 O   0  0  0  0  0  0  0  0  0  0  0  0
  -27.6556   67.4369   61.1764 N   0  0  0  0  0  0  0  0  0  0  0  0
  -27.9226   66.6190   61.6550 H   0  0  0  0  0  0  0  0  0  0  0  0
  -26.7523   68.1099   63.2608 C   0  0  0  0  0  0  0  0  0  0  0  0
  -25.8241   65.8792   63.6120 C   0  0  0  0  0  0  0  0  0  0  0  0
  -26.9596   65.4770   63.8704 O   0  0  0  0  0  0  0  0  0  0  0  0
  -25.6395   67.2057   63.5284 N   0  0  0  0  0  0  0  0  0  0  0  0
  -24.7353   67.5758   63.6499 H   0  0  0  0  0  0  0  0  0  0  0  0
  -24.6137   64.9728   63.8250 C   0  0  0  0  0  0  0  0  0  0  0  0
  -25.3808   62.6092   63.9613 C   0  0  0  0  0  0  0  0  0  0  0  0
  -25.8379   62.5381   62.8189 O   0  0  0  0  0  0  0  0  0  0  0  0
  -24.9853   63.7617   64.5510 N   0  0  0  0  0  0  0  0  0  0  0  0
  -24.9455   63.7848   65.5344 H   0  0  0  0  0  0  0  0  0  0  0  0
  -25.5720   61.4583   64.9472 C   0  0  0  0  0  0  0  0  0  0  0  0
  -27.8805   61.8176   65.4187 C   0  0  0  0  0  0  0  0  0  0  0  0
  -27.6041   62.6509   66.2840 O   0  0  0  0  0  0  0  0  0  0  0  0
  -26.9694   61.0386   64.9508 N   0  0  0  0  0  0  0  0  0  0  0  0
  -27.2165   60.1551   64.5936 H   0  0  0  0  0  0  0  0  0  0  0  0
  -29.3112   61.3229   65.2489 C   0  0  0  0  0  0  0  0  0  0  0  0
  -30.8956   62.8783   66.1878 C   0  0  0  0  0  0  0  0  0  0  0  0
  -31.0736   62.1260   67.1483 O   0  0  0  0  0  0  0  0  0  0  0  0
  -30.2418   62.4442   65.1831 N   0  0  0  0  0  0  0  0  0  0  0  0
  -30.3723   62.8902   64.3151 H   0  0  0  0  0  0  0  0  0  0  0  0
  -31.8016   64.0886   65.9708 C   0  0  0  0  0  0  0  0  0  0  0  0
  -33.6275   63.0379   64.8507 C   0  0  0  0  0  0  0  0  0  0  0  0
  -33.0682   63.4404   63.8274 O   0  0  0  0  0  0  0  0  0  0  0  0
  -33.1914   63.6551   65.8793 N   0  0  0  0  0  0  0  0  0  0  0  0
  -33.8054   63.8424   66.6258 H   0  0  0  0  0  0  0  0  0  0  0  0
  -35.2688   61.2935   64.2820 N   0  0  0  0  0  0  0  0  0  0  0  0
  -35.0992   62.6383   64.8254 C   0  0  0  0  0  0  0  0  0  0  0  0
  -35.6951   62.7233   66.2290 C   0  0  0  0  0  0  0  0  0  0  0  0
  -34.8666   61.2520   63.3456 H   0  0  0  0  0  0  0  0  0  0  0  0
  -36.2626   61.0684   64.2355 H   0  0  0  0  0  0  0  0  0  0  0  0
  -31.6007   65.1150   67.1081 C   0  0  0  0  0  0  0  0  0  0  0  0
  -31.2712   66.4937   66.5393 C   0  0  0  0  0  0  0  0  0  0  0  0
  -32.8458   65.1816   67.9913 C   0  0  0  0  0  0  0  0  0  0  0  0
  -29.4221   60.4565   63.9899 C   0  0  0  0  0  0  0  0  0  0  0  0
  -30.0279   59.1011   64.2370 C   0  0  0  0  0  0  0  0  0  0  0  0
  -29.4804   57.9640   63.6571 C   0  0  0  0  0  0  0  0  0  0  0  0
  -31.1450   58.9653   65.0500 C   0  0  0  0  0  0  0  0  0  0  0  0
  -30.0384   56.7086   63.8836 C   0  0  0  0  0  0  0  0  0  0  0  0
  -31.7092   57.7144   65.2808 C   0  0  0  0  0  0  0  0  0  0  0  0
  -31.1553   56.5866   64.6962 C   0  0  0  0  0  0  0  0  0  0  0  0
  -24.6282   60.2878   64.5902 C   0  0  0  0  0  0  0  0  0  0  0  0
  -25.2810   59.3612   63.5662 C   0  0  0  0  0  0  0  0  0  0  0  0
  -23.2965   60.8189   64.0636 C   0  0  0  0  0  0  0  0  0  0  0  0
  -23.9784   64.6178   62.4794 C   0  0  0  0  0  0  0  0  0  0  0  0
  -22.7594   65.4647   62.1567 C   0  0  0  0  0  0  0  0  0  0  0  0
  -21.6196   64.9955   62.3630 O   0  0  0  0  0  0  0  0  0  0  0  0
  -22.9406   66.6121   61.6959 O   0  0  0  0  0  0  0  0  0  0  0  0
  -21.5249   64.1302   62.7098 H   0  0  0  0  0  0  0  0  0  0  0  0
  -26.5239   69.4587   63.9492 C   0  0  0  0  0  0  0  0  0  0  0  0
  -27.7760   70.1983   64.4224 C   0  0  0  0  0  0  0  0  0  0  0  0
  -28.9389   69.2235   64.5801 C   0  0  0  0  0  0  0  0  0  0  0  0
  -27.5029   70.9289   65.7330 C   0  0  0  0  0  0  0  0  0  0  0  0
  -27.1820   66.8697   58.8308 C   0  0  0  0  0  0  0  0  0  0  0  0
  -26.2095   67.7441   58.0526 C   0  0  0  0  0  0  0  0  0  0  0  0
  -24.9339   67.0171   57.6561 C   0  0  0  0  0  0  0  0  0  0  0  0
  -24.3893   67.2981   56.5644 O   0  0  0  0  0  0  0  0  0  0  0  0
  -24.4778   66.1577   58.4434 O   0  0  0  0  0  0  0  0  0  0  0  0
  -24.7668   67.9492   56.0063 H   0  0  0  0  0  0  0  0  0  0  0  0
  -34.1543   67.9611   60.4053 C   0  0  0  0  0  0  0  0  0  0  0  0
  -35.5092   67.3604   60.0396 C   0  0  0  0  0  0  0  0  0  0  0  0
  -35.7155   66.9269   58.9049 O   0  0  0  0  0  0  0  0  0  0  0  0
  -36.3585   66.9849   61.0679 N   0  0  0  0  0  0  0  0  0  0  0  0
  -36.0274   67.0672   61.9913 H   0  0  0  0  0  0  0  0  0  0  0  0
  -37.7116   66.4754   60.8716 C   0  0  0  0  0  0  0  0  0  0  0  0
  -38.7113   67.6282   60.9291 C   0  0  0  0  0  0  0  0  0  0  0  0
  -38.6881   68.5212   60.0785 O   0  0  0  0  0  0  0  0  0  0  0  0
  -39.8057   67.3349   61.6798 N   0  0  0  0  0  0  0  0  0  0  0  0
  -39.9517   66.4346   62.0504 H   0  0  0  0  0  0  0  0  0  0  0  0
  -40.7532   68.4200   61.9094 C   0  0  0  0  0  0  0  0  0  0  0  0
  -41.2389   68.3849   63.3562 C   0  0  0  0  0  0  0  0  0  0  0  0
  -41.0137   67.4039   64.0692 O   0  0  0  0  0  0  0  0  0  0  0  0
  -41.4639   69.5670   63.8357 N   0  0  0  0  0  0  0  0  0  0  0  0
  -41.2586   70.3567   63.2848 H   0  0  0  0  0  0  0  0  0  0  0  0
  -42.0150   69.7550   65.1741 C   0  0  0  0  0  0  0  0  0  0  0  0
  -43.3646   70.4664   65.1169 C   0  0  0  0  0  0  0  0  0  0  0  0
  -43.5253   71.4469   64.3869 O   0  0  0  0  0  0  0  0  0  0  0  0
  -44.5895   69.7802   65.2255 N   0  0  0  0  0  0  0  0  0  0  0  0
  -44.5381   68.7971   65.2179 H   0  0  0  0  0  0  0  0  0  0  0  0
  -45.9270   70.3538   65.3483 C   0  0  0  0  0  0  0  0  0  0  0  0
  -46.4443   70.2462   66.7797 C   0  0  0  0  0  0  0  0  0  0  0  0
  -46.1274   71.0865   67.6247 O   0  0  0  0  0  0  0  0  0  0  0  0
  -47.7421   69.8578   66.9114 N   0  0  0  0  0  0  0  0  0  0  0  0
  -48.2787   69.8147   66.0871 H   0  0  0  0  0  0  0  0  0  0  0  0
  -48.4157   69.4992   68.1549 C   0  0  0  0  0  0  0  0  0  0  0  0
  -47.9129   68.1425   68.6434 C   0  0  0  0  0  0  0  0  0  0  0  0
  -47.5822   67.2697   67.8382 O   0  0  0  0  0  0  0  0  0  0  0  0
  -47.1284   68.0750   69.5966 N   0  0  0  0  0  0  0  0  0  0  0  0
  -46.7131   68.9330   69.8431 H   0  0  0  0  0  0  0  0  0  0  0  0
  -46.7112   66.9448   70.4195 C   0  0  0  0  0  0  0  0  0  0  0  0
  -47.4245   66.9559   71.7679 C   0  0  0  0  0  0  0  0  0  0  0  0
  -48.5503   66.4679   71.8840 O   0  0  0  0  0  0  0  0  0  0  0  0
  -45.1960   66.9624   70.6295 C   0  0  0  0  0  0  0  0  0  0  0  0
  -44.4079   66.3443   69.4857 C   0  0  0  0  0  0  0  0  0  0  0  0
  -43.8386   67.4050   68.5539 C   0  0  0  0  0  0  0  0  0  0  0  0
  -44.1938   67.1473   67.1614 N   0  0  0  0  0  0  0  0  0  0  0  0
  -42.1873   66.1398   66.6194 N   0  0  0  0  0  0  0  0  0  0  0  0
  -43.8270   66.3681   65.0330 N   0  0  0  0  0  0  0  0  0  0  0  0
  -43.4019   66.5520   66.2740 C   0  0  0  0  0  0  0  0  0  0  0  0
  -41.8654   66.2735   67.5401 H   0  0  0  0  0  0  0  0  0  0  0  0
  -41.6090   65.7006   65.9547 H   0  0  0  0  0  0  0  0  0  0  0  0
  -44.7261   66.6713   64.7706 H   0  0  0  0  0  0  0  0  0  0  0  0
  -43.2437   65.9282   64.3730 H   0  0  0  0  0  0  0  0  0  0  0  0
  -49.9513   69.4673   67.9808 C   0  0  0  0  0  0  0  0  0  0  0  0
  -50.3266   68.9821   66.5825 C   0  0  0  0  0  0  0  0  0  0  0  0
  -50.5905   68.5802   69.0480 C   0  0  0  0  0  0  0  0  0  0  0  0
  -46.8976   69.6653   64.3850 C   0  0  0  0  0  0  0  0  0  0  0  0
  -46.2582   69.2296   63.0752 C   0  0  0  0  0  0  0  0  0  0  0  0
  -46.3076   70.3003   61.9974 C   0  0  0  0  0  0  0  0  0  0  0  0
  -45.2377   70.8210   61.6080 O   0  0  0  0  0  0  0  0  0  0  0  0
  -47.4266   70.6234   61.5390 O   0  0  0  0  0  0  0  0  0  0  0  0
  -48.2022   70.2071   61.8600 H   0  0  0  0  0  0  0  0  0  0  0  0
  -41.0398   70.5457   66.0491 C   0  0  0  0  0  0  0  0  0  0  0  0
  -40.1337   69.6549   66.8804 C   0  0  0  0  0  0  0  0  0  0  0  0
  -39.4461   70.1651   67.7919 O   0  0  0  0  0  0  0  0  0  0  0  0
  -40.1034   68.4331   66.6195 O   0  0  0  0  0  0  0  0  0  0  0  0
  -40.6337   68.0883   65.9282 H   0  0  0  0  0  0  0  0  0  0  0  0
  -41.9535   68.3367   60.9392 C   0  0  0  0  0  0  0  0  0  0  0  0
  -43.2279   67.9382   61.6905 C   0  0  0  0  0  0  0  0  0  0  0  0
  -42.1427   69.6707   60.2083 C   0  0  0  0  0  0  0  0  0  0  0  0
  -43.0839   69.5937   59.0133 C   0  0  0  0  0  0  0  0  0  0  0  0
  -38.0725   65.4043   61.9255 C   0  0  0  0  0  0  0  0  0  0  0  0
  -38.3107   64.0505   61.2596 C   0  0  0  0  0  0  0  0  0  0  0  0
  -36.9690   65.2980   62.9771 C   0  0  0  0  0  0  0  0  0  0  0  0
  -34.0876   69.4196   59.9156 C   0  0  0  0  0  0  0  0  0  0  0  0
  -33.3109   69.5265   58.6080 C   0  0  0  0  0  0  0  0  0  0  0  0
  -35.4182   69.9099   59.7099 O   0  0  0  0  0  0  0  0  0  0  0  0
  -35.8599   69.3723   59.0340 H   0  0  0  0  0  0  0  0  0  0  0  0
 42 43  1  0  0  0
 49 47  1  0  0  0
 43 38  1  0  0  0
 43 44  1  0  0  0
 47 48  1  0  0  0
 47 37  1  0  0  0
 40 38  1  0  0  0
 40 37  1  0  0  0
 38 39  2  0  0  0
 37 33  1  0  0  0
 33 34  2  0  0  0
 33 35  1  0  0  0
 35 32  1  0  0  0
 55 53  1  0  0  0
 55 56  2  0  0  0
 53 51  2  0  0  0
 56 54  1  0  0  0
 59 57  1  0  0  0
 32 28  1  0  0  0
 32 50  1  0  0  0
 29 28  2  0  0  0
 51 50  1  0  0  0
 51 52  1  0  0  0
 28 30  1  0  0  0
 54 52  2  0  0  0
 30 27  1  0  0  0
 57 27  1  0  0  0
 57 58  1  0  0  0
 27 23  1  0  0  0
 23 25  1  0  0  0
 23 24  2  0  0  0
 25 22  1  0  0  0
 68 66  1  0  0  0
 67 66  1  0  0  0
 66 65  1  0  0  0
 22 60  1  0  0  0
 22 18  1  0  0  0
 60 61  1  0  0  0
 19 18  2  0  0  0
 18 20  1  0  0  0
 20 17  1  0  0  0
 65 17  1  0  0  0
 17 13  1  0  0  0
 61 63  2  0  0  0
 61 62  1  0  0  0
 13 15  1  0  0  0
 13 14  2  0  0  0
 15 12  1  0  0  0
  6  5  2  0  0  0
 12 69  1  0  0  0
 12  5  1  0  0  0
 70 69  1  0  0  0
 70 71  1  0  0  0
 73 71  2  0  0  0
142140  1  0  0  0
 71 72  1  0  0  0
  5  7  1  0  0  0
140141  1  0  0  0
140 75  1  0  0  0
  7  8  1  0  0  0
  7 11  1  0  0  0
  3 75  1  0  0  0
  3  1  1  0  0  0
  8  1  1  0  0  0
  8  9  1  0  0  0
 11 10  1  0  0  0
136135  1  0  0  0
 75 76  1  0  0  0
  1  2  2  0  0  0
  9 10  1  0  0  0
135133  1  0  0  0
 77 76  2  0  0  0
 76 78  1  0  0  0
133134  1  0  0  0
133 85  1  0  0  0
 78 80  1  0  0  0
 83 85  1  0  0  0
 83 81  1  0  0  0
 85 86  1  0  0  0
 82 81  2  0  0  0
 81 80  1  0  0  0
 80137  1  0  0  0
 86 88  1  0  0  0
 86 87  2  0  0  0
137139  1  0  0  0
137138  1  0  0  0
 88 90  1  0  0  0
 92 91  2  0  0  0
121119  1  0  0  0
 91 90  1  0  0  0
 91 93  1  0  0  0
 90128  1  0  0  0
 93 95  1  0  0  0
 95122  1  0  0  0
 95 96  1  0  0  0
123122  1  0  0  0
123124  1  0  0  0
128129  1  0  0  0
119120  1  0  0  0
119100  1  0  0  0
124125  2  0  0  0
124126  1  0  0  0
 98 96  1  0  0  0
 98100  1  0  0  0
 96 97  2  0  0  0
100101  1  0  0  0
102101  2  0  0  0
129130  2  0  0  0
129131  1  0  0  0
101103  1  0  0  0
107106  2  0  0  0
103105  1  0  0  0
106105  1  0  0  0
105108  1  0  0  0
108109  1  0  0  0
109110  1  0  0  0
110111  1  0  0  0
111114  2  0  0  0
114113  1  0  0  0
114112  1  0  0  0
 42 45  1  0  0  0
 42 46  1  0  0  0
 40 41  1  0  0  0
 35 36  1  0  0  0
 30 31  1  0  0  0
 25 26  1  0  0  0
 62 64  1  0  0  0
 20 21  1  0  0  0
 15 16  1  0  0  0
 72 74  1  0  0  0
  3  4  1  0  0  0
142143  1  0  0  0
 78 79  1  0  0  0
 83 84  1  0  0  0
 88 89  1  0  0  0
131132  1  0  0  0
 93 94  1  0  0  0
126127  1  0  0  0
 98 99  1  0  0  0
103104  1  0  0  0
112115  1  0  0  0
112116  1  0  0  0
113117  1  0  0  0
113118  1  0  0  0
M  END
> <MODEL>
    1                                                                     

> <minimizedAffinity>
-7.73046

> <CNNscore>
0.0892710015

> <CNNaffinity>
7.0482153893

> <CNN_VS>
0.6292012334

> <CNNaffinity_variance>
1.9325767756

$$$$



143144  0  0  0  0  0  0  0  0999 V2000
  -32.6428   66.4584   60.8331 C   0  0  0  0  0  0  0  0  0  0  0  0
  -32.3788   66.8774   61.9625 O   0  0  0  0  0  0  0  0  0  0  0  0
  -33.3329   67.1897   60.1582 N   0  0  0  0  0  0  0  0  0  0  0  0
  -33.1661   67.2919   59.1934 H   0  0  0  0  0  0  0  0  0  0  0  0
  -29.8808   67.3482   59.7520 C   0  0  0  0  0  0  0  0  0  0  0  0
  -30.6596   68.0033   59.0565 O   0  0  0  0  0  0  0  0  0  0  0  0
  -30.2555   66.1306   60.2017 N   0  0  0  0  0  0  0  0  0  0  0  0
  -31.6221   65.6203   60.0660 C   0  0  0  0  0  0  0  0  0  0  0  0
  -31.5303   64.2066   60.6464 C   0  0  0  0  0  0  0  0  0  0  0  0
  -30.2661   64.2031   61.4436 C   0  0  0  0  0  0  0  0  0  0  0  0
  -29.4005   65.3368   60.9728 C   0  0  0  0  0  0  0  0  0  0  0  0
  -28.4284   67.7881   59.9136 C   0  0  0  0  0  0  0  0  0  0  0  0
  -26.9823   68.2314   61.7359 C   0  0  0  0  0  0  0  0  0  0  0  0
  -26.0982   68.6660   60.9944 O   0  0  0  0  0  0  0  0  0  0  0  0
  -27.9486   67.5379   61.2696 N   0  0  0  0  0  0  0  0  0  0  0  0
  -28.3675   66.8387   61.8217 H   0  0  0  0  0  0  0  0  0  0  0  0
  -26.7201   68.0542   63.2287 C   0  0  0  0  0  0  0  0  0  0  0  0
  -25.7074   65.8591   63.5717 C   0  0  0  0  0  0  0  0  0  0  0  0
  -26.8157   65.4283   63.8941 O   0  0  0  0  0  0  0  0  0  0  0  0
  -25.5680   67.1887   63.4555 N   0  0  0  0  0  0  0  0  0  0  0  0
  -24.6707   67.5878   63.5247 H   0  0  0  0  0  0  0  0  0  0  0  0
  -24.4606   64.9934   63.7391 C   0  0  0  0  0  0  0  0  0  0  0  0
  -25.1473   62.6037   63.8456 C   0  0  0  0  0  0  0  0  0  0  0  0
  -25.6355   62.5418   62.7157 O   0  0  0  0  0  0  0  0  0  0  0  0
  -24.7715   63.7558   64.4489 N   0  0  0  0  0  0  0  0  0  0  0  0
  -24.7034   63.7595   65.4310 H   0  0  0  0  0  0  0  0  0  0  0  0
  -25.2723   61.4267   64.8111 C   0  0  0  0  0  0  0  0  0  0  0  0
  -27.5738   61.7642   65.3302 C   0  0  0  0  0  0  0  0  0  0  0  0
  -27.2905   62.6384   66.1519 O   0  0  0  0  0  0  0  0  0  0  0  0
  -26.6608   60.9825   64.8707 N   0  0  0  0  0  0  0  0  0  0  0  0
  -26.9003   60.0803   64.5578 H   0  0  0  0  0  0  0  0  0  0  0  0
  -28.9988   61.2372   65.2205 C   0  0  0  0  0  0  0  0  0  0  0  0
  -30.4685   62.8710   66.2115 C   0  0  0  0  0  0  0  0  0  0  0  0
  -30.4898   62.2238   67.2607 O   0  0  0  0  0  0  0  0  0  0  0  0
  -29.9551   62.3376   65.1735 N   0  0  0  0  0  0  0  0  0  0  0  0
  -30.2187   62.6876   64.2919 H   0  0  0  0  0  0  0  0  0  0  0  0
  -31.4242   64.0439   66.0028 C   0  0  0  0  0  0  0  0  0  0  0  0
  -33.3235   62.9057   65.1145 C   0  0  0  0  0  0  0  0  0  0  0  0
  -32.8806   63.2784   64.0251 O   0  0  0  0  0  0  0  0  0  0  0  0
  -32.8038   63.5749   66.0690 N   0  0  0  0  0  0  0  0  0  0  0  0
  -33.3449   63.7785   66.8659 H   0  0  0  0  0  0  0  0  0  0  0  0
  -34.8822   61.0226   65.4055 N   0  0  0  0  0  0  0  0  0  0  0  0
  -34.7790   62.4712   65.2535 C   0  0  0  0  0  0  0  0  0  0  0  0
  -35.4314   63.1779   66.4399 C   0  0  0  0  0  0  0  0  0  0  0  0
  -34.4429   60.5648   64.6069 H   0  0  0  0  0  0  0  0  0  0  0  0
  -35.8653   60.7548   65.4524 H   0  0  0  0  0  0  0  0  0  0  0  0
  -31.1489   65.1476   67.0484 C   0  0  0  0  0  0  0  0  0  0  0  0
  -31.2195   66.5310   66.4048 C   0  0  0  0  0  0  0  0  0  0  0  0
  -32.1397   65.0427   68.2069 C   0  0  0  0  0  0  0  0  0  0  0  0
  -29.1373   60.3499   63.9789 C   0  0  0  0  0  0  0  0  0  0  0  0
  -29.8628   59.0564   64.2347 C   0  0  0  0  0  0  0  0  0  0  0  0
  -29.3924   57.8629   63.7023 C   0  0  0  0  0  0  0  0  0  0  0  0
  -31.0152   59.0351   65.0086 C   0  0  0  0  0  0  0  0  0  0  0  0
  -30.0613   56.6645   63.9370 C   0  0  0  0  0  0  0  0  0  0  0  0
  -31.6900   57.8417   65.2473 C   0  0  0  0  0  0  0  0  0  0  0  0
  -31.2123   56.6569   64.7101 C   0  0  0  0  0  0  0  0  0  0  0  0
  -24.3275   60.2817   64.3815 C   0  0  0  0  0  0  0  0  0  0  0  0
  -22.9028   60.7996   64.1928 C   0  0  0  0  0  0  0  0  0  0  0  0
  -24.3579   59.1520   65.4090 C   0  0  0  0  0  0  0  0  0  0  0  0
  -23.8443   64.6878   62.3728 C   0  0  0  0  0  0  0  0  0  0  0  0
  -23.9660   65.8437   61.3948 C   0  0  0  0  0  0  0  0  0  0  0  0
  -24.8325   65.7923   60.4956 O   0  0  0  0  0  0  0  0  0  0  0  0
  -23.1864   66.8119   61.5224 O   0  0  0  0  0  0  0  0  0  0  0  0
  -25.3989   65.0485   60.4328 H   0  0  0  0  0  0  0  0  0  0  0  0
  -26.5013   69.4202   63.8856 C   0  0  0  0  0  0  0  0  0  0  0  0
  -27.7581   70.1569   64.3511 C   0  0  0  0  0  0  0  0  0  0  0  0
  -28.8961   69.1677   64.5837 C   0  0  0  0  0  0  0  0  0  0  0  0
  -27.4713   70.9568   65.6175 C   0  0  0  0  0  0  0  0  0  0  0  0
  -27.5452   67.0700   58.8892 C   0  0  0  0  0  0  0  0  0  0  0  0
  -26.9954   67.9847   57.8043 C   0  0  0  0  0  0  0  0  0  0  0  0
  -28.0398   68.3918   56.7764 C   0  0  0  0  0  0  0  0  0  0  0  0
  -28.8673   67.5393   56.3814 O   0  0  0  0  0  0  0  0  0  0  0  0
  -28.0277   69.5724   56.3613 O   0  0  0  0  0  0  0  0  0  0  0  0
  -28.8386   66.6662   56.7203 H   0  0  0  0  0  0  0  0  0  0  0  0
  -34.4171   67.9154   60.8098 C   0  0  0  0  0  0  0  0  0  0  0  0
  -35.7707   67.3161   60.4369 C   0  0  0  0  0  0  0  0  0  0  0  0
  -36.0325   67.0436   59.2643 O   0  0  0  0  0  0  0  0  0  0  0  0
  -36.5407   66.7589   61.4451 N   0  0  0  0  0  0  0  0  0  0  0  0
  -36.1555   66.7205   62.3503 H   0  0  0  0  0  0  0  0  0  0  0  0
  -37.8851   66.2253   61.2529 C   0  0  0  0  0  0  0  0  0  0  0  0
  -38.9158   67.3308   61.4705 C   0  0  0  0  0  0  0  0  0  0  0  0
  -39.0136   68.2634   60.6692 O   0  0  0  0  0  0  0  0  0  0  0  0
  -39.9154   66.9560   62.3117 N   0  0  0  0  0  0  0  0  0  0  0  0
  -39.9888   66.0337   62.6481 H   0  0  0  0  0  0  0  0  0  0  0  0
  -40.8741   67.9878   62.6915 C   0  0  0  0  0  0  0  0  0  0  0  0
  -40.9375   68.0999   64.2126 C   0  0  0  0  0  0  0  0  0  0  0  0
  -40.7742   67.1040   64.9217 O   0  0  0  0  0  0  0  0  0  0  0  0
  -40.7241   69.3064   64.6332 N   0  0  0  0  0  0  0  0  0  0  0  0
  -40.4898   70.0079   63.9835 H   0  0  0  0  0  0  0  0  0  0  0  0
  -40.8231   69.6494   66.0485 C   0  0  0  0  0  0  0  0  0  0  0  0
  -42.0509   70.5157   66.3185 C   0  0  0  0  0  0  0  0  0  0  0  0
  -41.9983   71.4406   67.1321 O   0  0  0  0  0  0  0  0  0  0  0  0
  -42.9783   70.8521   65.3136 N   0  0  0  0  0  0  0  0  0  0  0  0
  -42.7314   70.6018   64.3940 H   0  0  0  0  0  0  0  0  0  0  0  0
  -44.2630   71.5281   65.4735 C   0  0  0  0  0  0  0  0  0  0  0  0
  -45.2778   70.6268   66.1708 C   0  0  0  0  0  0  0  0  0  0  0  0
  -46.3833   71.0643   66.4976 O   0  0  0  0  0  0  0  0  0  0  0  0
  -45.3546   69.3509   65.7029 N   0  0  0  0  0  0  0  0  0  0  0  0
  -44.8620   69.1512   64.8743 H   0  0  0  0  0  0  0  0  0  0  0  0
  -46.0957   68.2503   66.3096 C   0  0  0  0  0  0  0  0  0  0  0  0
  -45.1228   67.1855   66.8114 C   0  0  0  0  0  0  0  0  0  0  0  0
  -43.9066   67.3838   66.7813 O   0  0  0  0  0  0  0  0  0  0  0  0
  -45.3647   66.5605   67.8503 N   0  0  0  0  0  0  0  0  0  0  0  0
  -46.0805   66.9505   68.4024 H   0  0  0  0  0  0  0  0  0  0  0  0
  -44.7733   65.3455   68.4004 C   0  0  0  0  0  0  0  0  0  0  0  0
  -43.7806   65.6735   69.5112 C   0  0  0  0  0  0  0  0  0  0  0  0
  -42.9435   64.8421   69.8676 O   0  0  0  0  0  0  0  0  0  0  0  0
  -44.0799   64.5390   67.3009 C   0  0  0  0  0  0  0  0  0  0  0  0
  -44.6410   63.1380   67.1169 C   0  0  0  0  0  0  0  0  0  0  0  0
  -44.6930   62.7385   65.6489 C   0  0  0  0  0  0  0  0  0  0  0  0
  -45.5404   61.5686   65.4374 N   0  0  0  0  0  0  0  0  0  0  0  0
  -43.8249   60.0338   65.6276 N   0  0  0  0  0  0  0  0  0  0  0  0
  -45.9681   59.3222   65.2301 N   0  0  0  0  0  0  0  0  0  0  0  0
  -45.1094   60.3104   65.4323 C   0  0  0  0  0  0  0  0  0  0  0  0
  -43.1816   60.7636   65.7784 H   0  0  0  0  0  0  0  0  0  0  0  0
  -43.5162   59.0989   65.6215 H   0  0  0  0  0  0  0  0  0  0  0  0
  -46.9214   59.5205   65.0847 H   0  0  0  0  0  0  0  0  0  0  0  0
  -45.6529   58.3895   65.2252 H   0  0  0  0  0  0  0  0  0  0  0  0
  -47.1022   67.6268   65.3159 C   0  0  0  0  0  0  0  0  0  0  0  0
  -48.5287   67.7412   65.8484 C   0  0  0  0  0  0  0  0  0  0  0  0
  -46.9835   68.2951   63.9471 C   0  0  0  0  0  0  0  0  0  0  0  0
  -44.8060   71.9790   64.1149 C   0  0  0  0  0  0  0  0  0  0  0  0
  -43.8014   72.7578   63.2793 C   0  0  0  0  0  0  0  0  0  0  0  0
  -43.0874   71.9013   62.2461 C   0  0  0  0  0  0  0  0  0  0  0  0
  -43.6130   71.7409   61.1212 O   0  0  0  0  0  0  0  0  0  0  0  0
  -41.9931   71.3840   62.5647 O   0  0  0  0  0  0  0  0  0  0  0  0
  -41.6364   71.5309   63.4186 H   0  0  0  0  0  0  0  0  0  0  0  0
  -39.5568   70.3710   66.5150 C   0  0  0  0  0  0  0  0  0  0  0  0
  -38.3638   69.4424   66.6562 C   0  0  0  0  0  0  0  0  0  0  0  0
  -37.6699   69.1832   65.6487 O   0  0  0  0  0  0  0  0  0  0  0  0
  -38.1176   68.9621   67.7834 O   0  0  0  0  0  0  0  0  0  0  0  0
  -38.6613   69.1804   68.5146 H   0  0  0  0  0  0  0  0  0  0  0  0
  -42.2783   67.6933   62.1170 C   0  0  0  0  0  0  0  0  0  0  0  0
  -43.3673   68.1508   63.0929 C   0  0  0  0  0  0  0  0  0  0  0  0
  -42.4483   68.3674   60.7509 C   0  0  0  0  0  0  0  0  0  0  0  0
  -43.1160   67.4852   59.7041 C   0  0  0  0  0  0  0  0  0  0  0  0
  -38.1660   65.0403   62.2042 C   0  0  0  0  0  0  0  0  0  0  0  0
  -38.5476   63.7912   61.4123 C   0  0  0  0  0  0  0  0  0  0  0  0
  -36.9494   64.7650   63.0865 C   0  0  0  0  0  0  0  0  0  0  0  0
  -34.3937   69.4091   60.4361 C   0  0  0  0  0  0  0  0  0  0  0  0
  -33.2066   70.1187   61.0780 C   0  0  0  0  0  0  0  0  0  0  0  0
  -34.3008   69.5383   59.0121 O   0  0  0  0  0  0  0  0  0  0  0  0
  -33.4795   69.1250   58.7029 H   0  0  0  0  0  0  0  0  0  0  0  0
 42 43  1  0  0  0
 49 47  1  0  0  0
 43 38  1  0  0  0
 43 44  1  0  0  0
 47 48  1  0  0  0
 47 37  1  0  0  0
 40 38  1  0  0  0
 40 37  1  0  0  0
 38 39  2  0  0  0
 37 33  1  0  0  0
 33 34  2  0  0  0
 33 35  1  0  0  0
 35 32  1  0  0  0
 55 53  1  0  0  0
 55 56  2  0  0  0
 53 51  2  0  0  0
 56 54  1  0  0  0
 59 57  1  0  0  0
 32 28  1  0  0  0
 32 50  1  0  0  0
 29 28  2  0  0  0
 51 50  1  0  0  0
 51 52  1  0  0  0
 28 30  1  0  0  0
 54 52  2  0  0  0
 30 27  1  0  0  0
 57 27  1  0  0  0
 57 58  1  0  0  0
 27 23  1  0  0  0
 23 25  1  0  0  0
 23 24  2  0  0  0
 25 22  1  0  0  0
 68 66  1  0  0  0
 67 66  1  0  0  0
 66 65  1  0  0  0
 22 60  1  0  0  0
 22 18  1  0  0  0
 60 61  1  0  0  0
 19 18  2  0  0  0
 18 20  1  0  0  0
 20 17  1  0  0  0
 65 17  1  0  0  0
 17 13  1  0  0  0
 61 63  2  0  0  0
 61 62  1  0  0  0
 13 15  1  0  0  0
 13 14  2  0  0  0
 15 12  1  0  0  0
  6  5  2  0  0  0
 12 69  1  0  0  0
 12  5  1  0  0  0
 70 69  1  0  0  0
 70 71  1  0  0  0
 73 71  2  0  0  0
142140  1  0  0  0
 71 72  1  0  0  0
  5  7  1  0  0  0
140141  1  0  0  0
140 75  1  0  0  0
  7  8  1  0  0  0
  7 11  1  0  0  0
  3 75  1  0  0  0
  3  1  1  0  0  0
  8  1  1  0  0  0
  8  9  1  0  0  0
 11 10  1  0  0  0
136135  1  0  0  0
 75 76  1  0  0  0
  1  2  2  0  0  0
  9 10  1  0  0  0
135133  1  0  0  0
 77 76  2  0  0  0
 76 78  1  0  0  0
133134  1  0  0  0
133 85  1  0  0  0
 78 80  1  0  0  0
 83 85  1  0  0  0
 83 81  1  0  0  0
 85 86  1  0  0  0
 82 81  2  0  0  0
 81 80  1  0  0  0
 80137  1  0  0  0
 86 88  1  0  0  0
 86 87  2  0  0  0
137139  1  0  0  0
137138  1  0  0  0
 88 90  1  0  0  0
 92 91  2  0  0  0
121119  1  0  0  0
 91 90  1  0  0  0
 91 93  1  0  0  0
 90128  1  0  0  0
 93 95  1  0  0  0
 95122  1  0  0  0
 95 96  1  0  0  0
123122  1  0  0  0
123124  1  0  0  0
128129  1  0  0  0
119120  1  0  0  0
119100  1  0  0  0
124125  2  0  0  0
124126  1  0  0  0
 98 96  1  0  0  0
 98100  1  0  0  0
 96 97  2  0  0  0
100101  1  0  0  0
102101  2  0  0  0
129130  2  0  0  0
129131  1  0  0  0
101103  1  0  0  0
107106  2  0  0  0
103105  1  0  0  0
106105  1  0  0  0
105108  1  0  0  0
108109  1  0  0  0
109110  1  0  0  0
110111  1  0  0  0
111114  2  0  0  0
114113  1  0  0  0
114112  1  0  0  0
 42 45  1  0  0  0
 42 46  1  0  0  0
 40 41  1  0  0  0
 35 36  1  0  0  0
 30 31  1  0  0  0
 25 26  1  0  0  0
 62 64  1  0  0  0
 20 21  1  0  0  0
 15 16  1  0  0  0
 72 74  1  0  0  0
  3  4  1  0  0  0
142143  1  0  0  0
 78 79  1  0  0  0
 83 84  1  0  0  0
 88 89  1  0  0  0
131132  1  0  0  0
 93 94  1  0  0  0
126127  1  0  0  0
 98 99  1  0  0  0
103104  1  0  0  0
112115  1  0  0  0
112116  1  0  0  0
113117  1  0  0  0
113118  1  0  0  0
M  END
> <MODEL>
    1                                                                     

> <minimizedAffinity>
-8.02594

> <CNNscore>
0.0843644142

> <CNNaffinity>
7.1489410400

> <CNN_VS>
0.6031162143

> <CNNaffinity_variance>
2.7937514782

$$$$



143144  0  0  0  0  0  0  0  0999 V2000
  -37.5662   64.8928   63.7913 C   0  0  0  0  0  0  0  0  0  0  0  0
  -37.5134   64.6754   62.5786 O   0  0  0  0  0  0  0  0  0  0  0  0
  -37.0797   64.0336   64.4925 N   0  0  0  0  0  0  0  0  0  0  0  0
  -36.5678   64.2711   65.2992 H   0  0  0  0  0  0  0  0  0  0  0  0
  -35.6914   67.1478   62.7969 C   0  0  0  0  0  0  0  0  0  0  0  0
  -34.8970   66.3382   63.2794 O   0  0  0  0  0  0  0  0  0  0  0  0
  -36.9313   67.2555   63.3224 N   0  0  0  0  0  0  0  0  0  0  0  0
  -37.4537   66.3205   64.3221 C   0  0  0  0  0  0  0  0  0  0  0  0
  -38.8359   66.8909   64.6508 C   0  0  0  0  0  0  0  0  0  0  0  0
  -39.1466   67.8143   63.5173 C   0  0  0  0  0  0  0  0  0  0  0  0
  -37.8616   68.1753   62.8285 C   0  0  0  0  0  0  0  0  0  0  0  0
  -35.2208   68.1826   61.7786 C   0  0  0  0  0  0  0  0  0  0  0  0
  -34.5510   70.2435   62.7340 C   0  0  0  0  0  0  0  0  0  0  0  0
  -35.4554   70.8592   62.1653 O   0  0  0  0  0  0  0  0  0  0  0  0
  -34.2152   69.0707   62.3545 N   0  0  0  0  0  0  0  0  0  0  0  0
  -33.2834   68.7675   62.4500 H   0  0  0  0  0  0  0  0  0  0  0  0
  -33.4888   70.9943   63.5318 C   0  0  0  0  0  0  0  0  0  0  0  0
  -31.7129   69.9296   64.8256 C   0  0  0  0  0  0  0  0  0  0  0  0
  -32.0004   70.6630   65.7728 O   0  0  0  0  0  0  0  0  0  0  0  0
  -32.2635   70.2095   63.6342 N   0  0  0  0  0  0  0  0  0  0  0  0
  -31.8320   69.8789   62.8134 H   0  0  0  0  0  0  0  0  0  0  0  0
  -30.4686   69.0459   64.8794 C   0  0  0  0  0  0  0  0  0  0  0  0
  -31.1077   67.1241   66.3257 C   0  0  0  0  0  0  0  0  0  0  0  0
  -30.7422   67.6178   67.3942 O   0  0  0  0  0  0  0  0  0  0  0  0
  -30.8256   67.6490   65.1102 N   0  0  0  0  0  0  0  0  0  0  0  0
  -30.8636   67.0493   64.3304 H   0  0  0  0  0  0  0  0  0  0  0  0
  -31.5881   65.6755   66.2637 C   0  0  0  0  0  0  0  0  0  0  0  0
  -31.5059   64.4535   64.2191 C   0  0  0  0  0  0  0  0  0  0  0  0
  -32.6837   64.1111   64.3424 O   0  0  0  0  0  0  0  0  0  0  0  0
  -30.8681   64.9612   65.2147 N   0  0  0  0  0  0  0  0  0  0  0  0
  -29.8896   64.8673   65.2689 H   0  0  0  0  0  0  0  0  0  0  0  0
  -30.6337   63.8477   63.1270 C   0  0  0  0  0  0  0  0  0  0  0  0
  -29.1901   62.3280   64.3177 C   0  0  0  0  0  0  0  0  0  0  0  0
  -28.3629   63.2285   64.4756 O   0  0  0  0  0  0  0  0  0  0  0  0
  -30.1623   62.5234   63.5164 N   0  0  0  0  0  0  0  0  0  0  0  0
  -30.6200   61.7373   63.1399 H   0  0  0  0  0  0  0  0  0  0  0  0
  -28.8396   60.8821   64.6627 C   0  0  0  0  0  0  0  0  0  0  0  0
  -30.7768   59.5021   64.8506 C   0  0  0  0  0  0  0  0  0  0  0  0
  -30.9890   59.8575   63.6884 O   0  0  0  0  0  0  0  0  0  0  0  0
  -29.9321   60.2749   65.4148 N   0  0  0  0  0  0  0  0  0  0  0  0
  -30.0196   60.4650   66.3768 H   0  0  0  0  0  0  0  0  0  0  0  0
  -33.1916   59.0598   65.0328 N   0  0  0  0  0  0  0  0  0  0  0  0
  -31.9018   58.9254   65.7040 C   0  0  0  0  0  0  0  0  0  0  0  0
  -31.6219   57.4595   66.0286 C   0  0  0  0  0  0  0  0  0  0  0  0
  -33.3647   60.0428   64.8225 H   0  0  0  0  0  0  0  0  0  0  0  0
  -33.9301   58.7072   65.6416 H   0  0  0  0  0  0  0  0  0  0  0  0
  -28.5269   60.0880   63.3747 C   0  0  0  0  0  0  0  0  0  0  0  0
  -27.7355   60.9462   62.3898 C   0  0  0  0  0  0  0  0  0  0  0  0
  -27.7603   58.8096   63.7102 C   0  0  0  0  0  0  0  0  0  0  0  0
  -31.4141   63.7757   61.8102 C   0  0  0  0  0  0  0  0  0  0  0  0
  -31.0765   64.8784   60.8432 C   0  0  0  0  0  0  0  0  0  0  0  0
  -30.0396   65.7629   61.1111 C   0  0  0  0  0  0  0  0  0  0  0  0
  -31.7967   65.0294   59.6659 C   0  0  0  0  0  0  0  0  0  0  0  0
  -29.7248   66.7843   60.2186 C   0  0  0  0  0  0  0  0  0  0  0  0
  -31.4888   66.0479   58.7691 C   0  0  0  0  0  0  0  0  0  0  0  0
  -30.4529   66.9254   59.0471 C   0  0  0  0  0  0  0  0  0  0  0  0
  -31.4097   64.9949   67.6396 C   0  0  0  0  0  0  0  0  0  0  0  0
  -32.6530   65.1926   68.5048 C   0  0  0  0  0  0  0  0  0  0  0  0
  -31.1074   63.5082   67.4634 C   0  0  0  0  0  0  0  0  0  0  0  0
  -29.6658   69.1873   63.5848 C   0  0  0  0  0  0  0  0  0  0  0  0
  -28.8243   70.4513   63.5434 C   0  0  0  0  0  0  0  0  0  0  0  0
  -29.2913   71.4767   63.0028 O   0  0  0  0  0  0  0  0  0  0  0  0
  -27.6834   70.4200   64.0523 O   0  0  0  0  0  0  0  0  0  0  0  0
  -30.1518   71.4604   62.6321 H   0  0  0  0  0  0  0  0  0  0  0  0
  -33.2041   72.3486   62.8759 C   0  0  0  0  0  0  0  0  0  0  0  0
  -33.1340   73.5542   63.8143 C   0  0  0  0  0  0  0  0  0  0  0  0
  -31.6852   73.8489   64.1904 C   0  0  0  0  0  0  0  0  0  0  0  0
  -33.7824   74.7739   63.1678 C   0  0  0  0  0  0  0  0  0  0  0  0
  -34.6699   67.4813   60.5338 C   0  0  0  0  0  0  0  0  0  0  0  0
  -33.9896   68.4220   59.5498 C   0  0  0  0  0  0  0  0  0  0  0  0
  -34.5029   68.2747   58.1258 C   0  0  0  0  0  0  0  0  0  0  0  0
  -33.6859   68.3200   57.1782 O   0  0  0  0  0  0  0  0  0  0  0  0
  -35.7328   68.1153   57.9574 O   0  0  0  0  0  0  0  0  0  0  0  0
  -32.7731   68.4411   57.3519 H   0  0  0  0  0  0  0  0  0  0  0  0
  -37.2707   62.6387   64.1127 C   0  0  0  0  0  0  0  0  0  0  0  0
  -38.5305   62.0689   64.7597 C   0  0  0  0  0  0  0  0  0  0  0  0
  -38.8299   62.3685   65.9166 O   0  0  0  0  0  0  0  0  0  0  0  0
  -39.4985   61.5178   63.9356 N   0  0  0  0  0  0  0  0  0  0  0  0
  -39.3586   61.5706   62.9625 H   0  0  0  0  0  0  0  0  0  0  0  0
  -40.7116   60.8644   64.4156 C   0  0  0  0  0  0  0  0  0  0  0  0
  -41.8479   61.8811   64.4988 C   0  0  0  0  0  0  0  0  0  0  0  0
  -41.6101   63.0911   64.4680 O   0  0  0  0  0  0  0  0  0  0  0  0
  -43.0546   61.3449   64.1769 N   0  0  0  0  0  0  0  0  0  0  0  0
  -43.1367   60.4246   63.8370 H   0  0  0  0  0  0  0  0  0  0  0  0
  -44.2220   62.2002   64.3598 C   0  0  0  0  0  0  0  0  0  0  0  0
  -44.4801   62.4111   65.8494 C   0  0  0  0  0  0  0  0  0  0  0  0
  -44.5261   61.4490   66.6199 O   0  0  0  0  0  0  0  0  0  0  0  0
  -44.1948   63.6128   66.2400 N   0  0  0  0  0  0  0  0  0  0  0  0
  -43.7980   64.2456   65.5985 H   0  0  0  0  0  0  0  0  0  0  0  0
  -44.4481   64.0502   67.6093 C   0  0  0  0  0  0  0  0  0  0  0  0
  -45.4173   65.2294   67.6382 C   0  0  0  0  0  0  0  0  0  0  0  0
  -46.6354   65.0395   67.6267 O   0  0  0  0  0  0  0  0  0  0  0  0
  -45.1526   66.4120   68.3554 N   0  0  0  0  0  0  0  0  0  0  0  0
  -44.3621   66.3959   68.9420 H   0  0  0  0  0  0  0  0  0  0  0  0
  -45.9115   67.6596   68.3326 C   0  0  0  0  0  0  0  0  0  0  0  0
  -45.4187   68.5850   67.2240 C   0  0  0  0  0  0  0  0  0  0  0  0
  -45.4740   69.8093   67.3597 O   0  0  0  0  0  0  0  0  0  0  0  0
  -44.2778   68.1951   66.5923 N   0  0  0  0  0  0  0  0  0  0  0  0
  -43.7894   67.4362   66.9857 H   0  0  0  0  0  0  0  0  0  0  0  0
  -43.7081   68.7920   65.3891 C   0  0  0  0  0  0  0  0  0  0  0  0
  -43.9313   67.8654   64.1960 C   0  0  0  0  0  0  0  0  0  0  0  0
  -44.4576   66.7614   64.3498 O   0  0  0  0  0  0  0  0  0  0  0  0
  -44.3441   68.3197   63.1228 N   0  0  0  0  0  0  0  0  0  0  0  0
  -44.7055   69.2337   63.1802 H   0  0  0  0  0  0  0  0  0  0  0  0
  -44.3888   67.7366   61.7862 C   0  0  0  0  0  0  0  0  0  0  0  0
  -45.7779   67.1896   61.4731 C   0  0  0  0  0  0  0  0  0  0  0  0
  -46.0404   66.7544   60.3503 O   0  0  0  0  0  0  0  0  0  0  0  0
  -43.3462   66.6255   61.6487 C   0  0  0  0  0  0  0  0  0  0  0  0
  -41.9497   67.1280   61.3188 C   0  0  0  0  0  0  0  0  0  0  0  0
  -40.9072   66.0266   61.4503 C   0  0  0  0  0  0  0  0  0  0  0  0
  -41.5214   64.7023   61.4778 N   0  0  0  0  0  0  0  0  0  0  0  0
  -39.5639   63.5576   61.0390 N   0  0  0  0  0  0  0  0  0  0  0  0
  -41.5282   62.4110   61.3294 N   0  0  0  0  0  0  0  0  0  0  0  0
  -40.8698   63.5595   61.2821 C   0  0  0  0  0  0  0  0  0  0  0  0
  -39.0687   64.4077   61.0025 H   0  0  0  0  0  0  0  0  0  0  0  0
  -39.0912   62.7060   60.8953 H   0  0  0  0  0  0  0  0  0  0  0  0
  -42.4961   62.4056   61.5092 H   0  0  0  0  0  0  0  0  0  0  0  0
  -41.0496   61.5629   61.1848 H   0  0  0  0  0  0  0  0  0  0  0  0
  -42.2005   69.0870   65.5602 C   0  0  0  0  0  0  0  0  0  0  0  0
  -41.7511   70.1815   64.5949 C   0  0  0  0  0  0  0  0  0  0  0  0
  -41.8952   69.4838   67.0037 C   0  0  0  0  0  0  0  0  0  0  0  0
  -45.8229   68.3676   69.6871 C   0  0  0  0  0  0  0  0  0  0  0  0
  -47.0806   68.2364   70.5327 C   0  0  0  0  0  0  0  0  0  0  0  0
  -48.0903   67.2553   69.9592 C   0  0  0  0  0  0  0  0  0  0  0  0
  -49.0857   67.6981   69.3424 O   0  0  0  0  0  0  0  0  0  0  0  0
  -47.8855   66.0324   70.1297 O   0  0  0  0  0  0  0  0  0  0  0  0
  -47.1264   65.7454   70.5981 H   0  0  0  0  0  0  0  0  0  0  0  0
  -43.1373   64.4289   68.3021 C   0  0  0  0  0  0  0  0  0  0  0  0
  -42.0170   64.7347   67.3238 C   0  0  0  0  0  0  0  0  0  0  0  0
  -42.0814   65.7713   66.6272 O   0  0  0  0  0  0  0  0  0  0  0  0
  -41.0635   63.9306   67.2453 O   0  0  0  0  0  0  0  0  0  0  0  0
  -41.0513   63.1643   67.7845 H   0  0  0  0  0  0  0  0  0  0  0  0
  -45.4734   61.6013   63.6787 C   0  0  0  0  0  0  0  0  0  0  0  0
  -45.3728   60.0739   63.6125 C   0  0  0  0  0  0  0  0  0  0  0  0
  -46.7434   62.0352   64.4192 C   0  0  0  0  0  0  0  0  0  0  0  0
  -47.8850   61.0307   64.3313 C   0  0  0  0  0  0  0  0  0  0  0  0
  -40.4902   60.1990   65.7927 C   0  0  0  0  0  0  0  0  0  0  0  0
  -41.7822   60.2016   66.6074 C   0  0  0  0  0  0  0  0  0  0  0  0
  -39.9692   58.7733   65.6182 C   0  0  0  0  0  0  0  0  0  0  0  0
  -36.0546   61.7803   64.5075 C   0  0  0  0  0  0  0  0  0  0  0  0
  -36.0948   60.4197   63.8206 C   0  0  0  0  0  0  0  0  0  0  0  0
  -34.8527   62.4607   64.1262 O   0  0  0  0  0  0  0  0  0  0  0  0
  -34.8457   62.5907   63.1650 H   0  0  0  0  0  0  0  0  0  0  0  0
 42 43  1  0  0  0
 49 47  1  0  0  0
 43 38  1  0  0  0
 43 44  1  0  0  0
 47 48  1  0  0  0
 47 37  1  0  0  0
 40 38  1  0  0  0
 40 37  1  0  0  0
 38 39  2  0  0  0
 37 33  1  0  0  0
 33 34  2  0  0  0
 33 35  1  0  0  0
 35 32  1  0  0  0
 55 53  1  0  0  0
 55 56  2  0  0  0
 53 51  2  0  0  0
 56 54  1  0  0  0
 59 57  1  0  0  0
 32 28  1  0  0  0
 32 50  1  0  0  0
 29 28  2  0  0  0
 51 50  1  0  0  0
 51 52  1  0  0  0
 28 30  1  0  0  0
 54 52  2  0  0  0
 30 27  1  0  0  0
 57 27  1  0  0  0
 57 58  1  0  0  0
 27 23  1  0  0  0
 23 25  1  0  0  0
 23 24  2  0  0  0
 25 22  1  0  0  0
 68 66  1  0  0  0
 67 66  1  0  0  0
 66 65  1  0  0  0
 22 60  1  0  0  0
 22 18  1  0  0  0
 60 61  1  0  0  0
 19 18  2  0  0  0
 18 20  1  0  0  0
 20 17  1  0  0  0
 65 17  1  0  0  0
 17 13  1  0  0  0
 61 63  2  0  0  0
 61 62  1  0  0  0
 13 15  1  0  0  0
 13 14  2  0  0  0
 15 12  1  0  0  0
  6  5  2  0  0  0
 12 69  1  0  0  0
 12  5  1  0  0  0
 70 69  1  0  0  0
 70 71  1  0  0  0
 73 71  2  0  0  0
142140  1  0  0  0
 71 72  1  0  0  0
  5  7  1  0  0  0
140141  1  0  0  0
140 75  1  0  0  0
  7  8  1  0  0  0
  7 11  1  0  0  0
  3 75  1  0  0  0
  3  1  1  0  0  0
  8  1  1  0  0  0
  8  9  1  0  0  0
 11 10  1  0  0  0
136135  1  0  0  0
 75 76  1  0  0  0
  1  2  2  0  0  0
  9 10  1  0  0  0
135133  1  0  0  0
 77 76  2  0  0  0
 76 78  1  0  0  0
133134  1  0  0  0
133 85  1  0  0  0
 78 80  1  0  0  0
 83 85  1  0  0  0
 83 81  1  0  0  0
 85 86  1  0  0  0
 82 81  2  0  0  0
 81 80  1  0  0  0
 80137  1  0  0  0
 86 88  1  0  0  0
 86 87  2  0  0  0
137139  1  0  0  0
137138  1  0  0  0
 88 90  1  0  0  0
 92 91  2  0  0  0
121119  1  0  0  0
 91 90  1  0  0  0
 91 93  1  0  0  0
 90128  1  0  0  0
 93 95  1  0  0  0
 95122  1  0  0  0
 95 96  1  0  0  0
123122  1  0  0  0
123124  1  0  0  0
128129  1  0  0  0
119120  1  0  0  0
119100  1  0  0  0
124125  2  0  0  0
124126  1  0  0  0
 98 96  1  0  0  0
 98100  1  0  0  0
 96 97  2  0  0  0
100101  1  0  0  0
102101  2  0  0  0
129130  2  0  0  0
129131  1  0  0  0
101103  1  0  0  0
107106  2  0  0  0
103105  1  0  0  0
106105  1  0  0  0
105108  1  0  0  0
108109  1  0  0  0
109110  1  0  0  0
110111  1  0  0  0
111114  2  0  0  0
114113  1  0  0  0
114112  1  0  0  0
 42 45  1  0  0  0
 42 46  1  0  0  0
 40 41  1  0  0  0
 35 36  1  0  0  0
 30 31  1  0  0  0
 25 26  1  0  0  0
 62 64  1  0  0  0
 20 21  1  0  0  0
 15 16  1  0  0  0
 72 74  1  0  0  0
  3  4  1  0  0  0
142143  1  0  0  0
 78 79  1  0  0  0
 83 84  1  0  0  0
 88 89  1  0  0  0
131132  1  0  0  0
 93 94  1  0  0  0
126127  1  0  0  0
 98 99  1  0  0  0
103104  1  0  0  0
112115  1  0  0  0
112116  1  0  0  0
113117  1  0  0  0
113118  1  0  0  0
M  END
> <MODEL>
    1                                                                     

> <minimizedAffinity>
-8.18172

> <CNNscore>
0.0774305761

> <CNNaffinity>
7.6218080521

> <CNN_VS>
0.5901609659

> <CNNaffinity_variance>
3.9026236534

$$$$



143144  0  0  0  0  0  0  0  0999 V2000
  -53.6960   73.6417   64.3882 C   0  0  0  0  0  0  0  0  0  0  0  0
  -54.4991   74.3153   65.0378 O   0  0  0  0  0  0  0  0  0  0  0  0
  -54.1782   72.7249   63.7608 N   0  0  0  0  0  0  0  0  0  0  0  0
  -53.8459   72.4991   62.8620 H   0  0  0  0  0  0  0  0  0  0  0  0
  -51.8354   72.4930   62.1956 C   0  0  0  0  0  0  0  0  0  0  0  0
  -51.6040   71.7515   63.1527 O   0  0  0  0  0  0  0  0  0  0  0  0
  -52.1750   73.7811   62.4204 N   0  0  0  0  0  0  0  0  0  0  0  0
  -52.4720   74.3021   63.7571 C   0  0  0  0  0  0  0  0  0  0  0  0
  -52.7233   75.7915   63.5078 C   0  0  0  0  0  0  0  0  0  0  0  0
  -52.9792   75.8943   62.0388 C   0  0  0  0  0  0  0  0  0  0  0  0
  -52.4231   74.6699   61.3696 C   0  0  0  0  0  0  0  0  0  0  0  0
  -51.5180   72.0432   60.7722 C   0  0  0  0  0  0  0  0  0  0  0  0
  -49.3523   71.6350   59.9049 C   0  0  0  0  0  0  0  0  0  0  0  0
  -49.6320   72.1562   58.8231 O   0  0  0  0  0  0  0  0  0  0  0  0
  -50.2697   71.2874   60.7233 N   0  0  0  0  0  0  0  0  0  0  0  0
  -50.1357   70.5141   61.3178 H   0  0  0  0  0  0  0  0  0  0  0  0
  -48.0112   70.9337   60.1005 C   0  0  0  0  0  0  0  0  0  0  0  0
  -46.4705   72.1079   61.5866 C   0  0  0  0  0  0  0  0  0  0  0  0
  -45.7648   72.3625   60.6094 O   0  0  0  0  0  0  0  0  0  0  0  0
  -47.4624   71.2192   61.4214 N   0  0  0  0  0  0  0  0  0  0  0  0
  -47.8267   70.7509   62.2070 H   0  0  0  0  0  0  0  0  0  0  0  0
  -45.9805   72.4198   62.9989 C   0  0  0  0  0  0  0  0  0  0  0  0
  -47.4142   74.0119   64.2652 C   0  0  0  0  0  0  0  0  0  0  0  0
  -46.6264   74.9597   64.2522 O   0  0  0  0  0  0  0  0  0  0  0  0
  -47.0957   72.7538   63.8804 N   0  0  0  0  0  0  0  0  0  0  0  0
  -47.6527   72.0152   64.2170 H   0  0  0  0  0  0  0  0  0  0  0  0
  -48.7093   74.0897   65.0712 C   0  0  0  0  0  0  0  0  0  0  0  0
  -47.9796   73.5135   67.2657 C   0  0  0  0  0  0  0  0  0  0  0  0
  -47.0327   74.2990   67.1888 O   0  0  0  0  0  0  0  0  0  0  0  0
  -48.6368   73.1811   66.2106 N   0  0  0  0  0  0  0  0  0  0  0  0
  -49.0930   72.3095   66.1719 H   0  0  0  0  0  0  0  0  0  0  0  0
  -48.0857   72.5406   68.4331 C   0  0  0  0  0  0  0  0  0  0  0  0
  -46.0225   71.3321   68.7400 C   0  0  0  0  0  0  0  0  0  0  0  0
  -46.5291   70.3277   68.2354 O   0  0  0  0  0  0  0  0  0  0  0  0
  -46.7781   72.3146   69.0387 N   0  0  0  0  0  0  0  0  0  0  0  0
  -46.4617   72.9560   69.7152 H   0  0  0  0  0  0  0  0  0  0  0  0
  -44.6622   71.2530   69.4297 C   0  0  0  0  0  0  0  0  0  0  0  0
  -42.7426   70.6065   68.1688 C   0  0  0  0  0  0  0  0  0  0  0  0
  -42.4866   69.9079   69.1529 O   0  0  0  0  0  0  0  0  0  0  0  0
  -43.6015   71.5045   68.4604 N   0  0  0  0  0  0  0  0  0  0  0  0
  -43.5470   72.3845   68.0223 H   0  0  0  0  0  0  0  0  0  0  0  0
  -41.8218   72.3180   66.6579 N   0  0  0  0  0  0  0  0  0  0  0  0
  -41.6529   70.9576   67.1610 C   0  0  0  0  0  0  0  0  0  0  0  0
  -40.2730   70.7928   67.7945 C   0  0  0  0  0  0  0  0  0  0  0  0
  -42.7466   72.4129   66.2383 H   0  0  0  0  0  0  0  0  0  0  0  0
  -41.1082   72.5117   65.9553 H   0  0  0  0  0  0  0  0  0  0  0  0
  -44.6033   72.2512   70.6076 C   0  0  0  0  0  0  0  0  0  0  0  0
  -44.6252   71.5117   71.9438 C   0  0  0  0  0  0  0  0  0  0  0  0
  -43.3574   73.1292   70.4997 C   0  0  0  0  0  0  0  0  0  0  0  0
  -49.0762   73.0737   69.4737 C   0  0  0  0  0  0  0  0  0  0  0  0
  -48.4391   73.4386   70.7874 C   0  0  0  0  0  0  0  0  0  0  0  0
  -48.5139   72.5774   71.8745 C   0  0  0  0  0  0  0  0  0  0  0  0
  -47.7648   74.6433   70.9340 C   0  0  0  0  0  0  0  0  0  0  0  0
  -47.9256   72.9119   73.0914 C   0  0  0  0  0  0  0  0  0  0  0  0
  -47.1748   74.9854   72.1469 C   0  0  0  0  0  0  0  0  0  0  0  0
  -47.2566   74.1190   73.2253 C   0  0  0  0  0  0  0  0  0  0  0  0
  -48.9712   75.5449   65.5209 C   0  0  0  0  0  0  0  0  0  0  0  0
  -49.1658   76.4569   64.3111 C   0  0  0  0  0  0  0  0  0  0  0  0
  -50.1874   75.6069   66.4429 C   0  0  0  0  0  0  0  0  0  0  0  0
  -45.1925   71.2333   63.5571 C   0  0  0  0  0  0  0  0  0  0  0  0
  -44.9148   71.3528   65.0458 C   0  0  0  0  0  0  0  0  0  0  0  0
  -44.9922   70.3328   65.7637 O   0  0  0  0  0  0  0  0  0  0  0  0
  -44.6200   72.4770   65.5047 O   0  0  0  0  0  0  0  0  0  0  0  0
  -45.2163   69.5070   65.3819 H   0  0  0  0  0  0  0  0  0  0  0  0
  -48.1787   69.4240   59.9050 C   0  0  0  0  0  0  0  0  0  0  0  0
  -47.1213   68.7311   59.0444 C   0  0  0  0  0  0  0  0  0  0  0  0
  -46.4482   69.7395   58.1185 C   0  0  0  0  0  0  0  0  0  0  0  0
  -46.0890   68.0332   59.9238 C   0  0  0  0  0  0  0  0  0  0  0  0
  -52.6746   71.2085   60.2151 C   0  0  0  0  0  0  0  0  0  0  0  0
  -53.1575   71.6651   58.8460 C   0  0  0  0  0  0  0  0  0  0  0  0
  -52.4581   70.9569   57.6961 C   0  0  0  0  0  0  0  0  0  0  0  0
  -51.6850   70.0052   57.9495 O   0  0  0  0  0  0  0  0  0  0  0  0
  -52.6838   71.3596   56.5328 O   0  0  0  0  0  0  0  0  0  0  0  0
  -51.5462   69.7378   58.8367 H   0  0  0  0  0  0  0  0  0  0  0  0
  -55.2631   71.9638   64.3691 C   0  0  0  0  0  0  0  0  0  0  0  0
  -54.7173   70.7653   65.1412 C   0  0  0  0  0  0  0  0  0  0  0  0
  -55.3458   70.2934   66.0900 O   0  0  0  0  0  0  0  0  0  0  0  0
  -53.7170   70.0077   64.5536 N   0  0  0  0  0  0  0  0  0  0  0  0
  -53.4420   70.2401   63.6373 H   0  0  0  0  0  0  0  0  0  0  0  0
  -53.0445   68.8880   65.2040 C   0  0  0  0  0  0  0  0  0  0  0  0
  -51.9102   69.4073   66.0845 C   0  0  0  0  0  0  0  0  0  0  0  0
  -51.5053   70.5665   65.9666 O   0  0  0  0  0  0  0  0  0  0  0  0
  -51.7368   68.6623   67.2080 N   0  0  0  0  0  0  0  0  0  0  0  0
  -52.3552   67.9341   67.4455 H   0  0  0  0  0  0  0  0  0  0  0  0
  -50.5891   68.9950   68.0447 C   0  0  0  0  0  0  0  0  0  0  0  0
  -49.3434   68.2863   67.5191 C   0  0  0  0  0  0  0  0  0  0  0  0
  -48.5644   67.7294   68.2965 O   0  0  0  0  0  0  0  0  0  0  0  0
  -49.4450   67.9595   66.2698 N   0  0  0  0  0  0  0  0  0  0  0  0
  -50.2915   68.1273   65.7960 H   0  0  0  0  0  0  0  0  0  0  0  0
  -48.3330   67.3484   65.5483 C   0  0  0  0  0  0  0  0  0  0  0  0
  -47.1966   66.9824   66.4999 C   0  0  0  0  0  0  0  0  0  0  0  0
  -46.9166   65.8013   66.7162 O   0  0  0  0  0  0  0  0  0  0  0  0
  -46.0220   67.7512   66.6107 N   0  0  0  0  0  0  0  0  0  0  0  0
  -45.9135   68.4748   65.9519 H   0  0  0  0  0  0  0  0  0  0  0  0
  -44.9458   67.6028   67.5867 C   0  0  0  0  0  0  0  0  0  0  0  0
  -43.7468   66.8797   66.9802 C   0  0  0  0  0  0  0  0  0  0  0  0
  -42.6063   67.3237   67.1303 O   0  0  0  0  0  0  0  0  0  0  0  0
  -43.7767   65.5209   67.0546 N   0  0  0  0  0  0  0  0  0  0  0  0
  -44.4858   65.1218   67.6087 H   0  0  0  0  0  0  0  0  0  0  0  0
  -42.8603   64.5982   66.3931 C   0  0  0  0  0  0  0  0  0  0  0  0
  -43.5970   63.8364   65.2935 C   0  0  0  0  0  0  0  0  0  0  0  0
  -43.0090   63.4963   64.2649 O   0  0  0  0  0  0  0  0  0  0  0  0
  -44.3798   62.9246   65.5843 N   0  0  0  0  0  0  0  0  0  0  0  0
  -44.3109   62.6107   66.5148 H   0  0  0  0  0  0  0  0  0  0  0  0
  -45.3879   62.2332   64.7878 C   0  0  0  0  0  0  0  0  0  0  0  0
  -46.7611   62.8730   64.9668 C   0  0  0  0  0  0  0  0  0  0  0  0
  -47.7767   62.1755   64.9993 O   0  0  0  0  0  0  0  0  0  0  0  0
  -45.4482   60.7518   65.1644 C   0  0  0  0  0  0  0  0  0  0  0  0
  -45.4232   59.8107   63.9706 C   0  0  0  0  0  0  0  0  0  0  0  0
  -44.2411   60.0925   63.0537 C   0  0  0  0  0  0  0  0  0  0  0  0
  -43.1088   59.2194   63.3489 N   0  0  0  0  0  0  0  0  0  0  0  0
  -41.5546   60.9249   63.4525 N   0  0  0  0  0  0  0  0  0  0  0  0
  -40.9054   58.7528   63.7957 N   0  0  0  0  0  0  0  0  0  0  0  0
  -41.8584   59.6342   63.5319 C   0  0  0  0  0  0  0  0  0  0  0  0
  -42.2582   61.5851   63.2567 H   0  0  0  0  0  0  0  0  0  0  0  0
  -40.6258   61.2213   63.5893 H   0  0  0  0  0  0  0  0  0  0  0  0
  -41.1240   57.7947   63.8560 H   0  0  0  0  0  0  0  0  0  0  0  0
  -39.9786   59.0557   63.9315 H   0  0  0  0  0  0  0  0  0  0  0  0
  -42.2289   63.6069   67.3970 C   0  0  0  0  0  0  0  0  0  0  0  0
  -40.7792   63.3079   67.0219 C   0  0  0  0  0  0  0  0  0  0  0  0
  -42.3138   64.1609   68.8184 C   0  0  0  0  0  0  0  0  0  0  0  0
  -45.4426   66.8511   68.8245 C   0  0  0  0  0  0  0  0  0  0  0  0
  -45.0101   67.4801   70.1403 C   0  0  0  0  0  0  0  0  0  0  0  0
  -46.1602   67.6917   71.1115 C   0  0  0  0  0  0  0  0  0  0  0  0
  -46.7859   68.7758   71.0861 O   0  0  0  0  0  0  0  0  0  0  0  0
  -46.4373   66.7659   71.9068 O   0  0  0  0  0  0  0  0  0  0  0  0
  -45.9420   65.9706   71.8909 H   0  0  0  0  0  0  0  0  0  0  0  0
  -47.8217   68.2892   64.4550 C   0  0  0  0  0  0  0  0  0  0  0  0
  -48.3381   69.7090   64.6061 C   0  0  0  0  0  0  0  0  0  0  0  0
  -49.0866   70.1831   63.7235 O   0  0  0  0  0  0  0  0  0  0  0  0
  -47.9906   70.3614   65.6139 O   0  0  0  0  0  0  0  0  0  0  0  0
  -47.4282   69.9710   66.2536 H   0  0  0  0  0  0  0  0  0  0  0  0
  -50.8381   68.6157   69.5221 C   0  0  0  0  0  0  0  0  0  0  0  0
  -50.4795   69.7836   70.4467 C   0  0  0  0  0  0  0  0  0  0  0  0
  -52.2949   68.1841   69.7243 C   0  0  0  0  0  0  0  0  0  0  0  0
  -52.5800   67.5916   71.0982 C   0  0  0  0  0  0  0  0  0  0  0  0
  -52.4970   67.8778   64.1706 C   0  0  0  0  0  0  0  0  0  0  0  0
  -53.4155   66.6620   64.0652 C   0  0  0  0  0  0  0  0  0  0  0  0
  -52.3335   68.5464   62.8065 C   0  0  0  0  0  0  0  0  0  0  0  0
  -56.2693   71.4794   63.3087 C   0  0  0  0  0  0  0  0  0  0  0  0
  -57.2089   72.6038   62.8871 C   0  0  0  0  0  0  0  0  0  0  0  0
  -55.5545   71.0120   62.1582 O   0  0  0  0  0  0  0  0  0  0  0  0
  -55.0315   71.7388   61.7852 H   0  0  0  0  0  0  0  0  0  0  0  0
 42 43  1  0  0  0
 49 47  1  0  0  0
 43 38  1  0  0  0
 43 44  1  0  0  0
 47 48  1  0  0  0
 47 37  1  0  0  0
 40 38  1  0  0  0
 40 37  1  0  0  0
 38 39  2  0  0  0
 37 33  1  0  0  0
 33 34  2  0  0  0
 33 35  1  0  0  0
 35 32  1  0  0  0
 55 53  1  0  0  0
 55 56  2  0  0  0
 53 51  2  0  0  0
 56 54  1  0  0  0
 59 57  1  0  0  0
 32 28  1  0  0  0
 32 50  1  0  0  0
 29 28  2  0  0  0
 51 50  1  0  0  0
 51 52  1  0  0  0
 28 30  1  0  0  0
 54 52  2  0  0  0
 30 27  1  0  0  0
 57 27  1  0  0  0
 57 58  1  0  0  0
 27 23  1  0  0  0
 23 25  1  0  0  0
 23 24  2  0  0  0
 25 22  1  0  0  0
 68 66  1  0  0  0
 67 66  1  0  0  0
 66 65  1  0  0  0
 22 60  1  0  0  0
 22 18  1  0  0  0
 60 61  1  0  0  0
 19 18  2  0  0  0
 18 20  1  0  0  0
 20 17  1  0  0  0
 65 17  1  0  0  0
 17 13  1  0  0  0
 61 63  2  0  0  0
 61 62  1  0  0  0
 13 15  1  0  0  0
 13 14  2  0  0  0
 15 12  1  0  0  0
  6  5  2  0  0  0
 12 69  1  0  0  0
 12  5  1  0  0  0
 70 69  1  0  0  0
 70 71  1  0  0  0
 73 71  2  0  0  0
142140  1  0  0  0
 71 72  1  0  0  0
  5  7  1  0  0  0
140141  1  0  0  0
140 75  1  0  0  0
  7  8  1  0  0  0
  7 11  1  0  0  0
  3 75  1  0  0  0
  3  1  1  0  0  0
  8  1  1  0  0  0
  8  9  1  0  0  0
 11 10  1  0  0  0
136135  1  0  0  0
 75 76  1  0  0  0
  1  2  2  0  0  0
  9 10  1  0  0  0
135133  1  0  0  0
 77 76  2  0  0  0
 76 78  1  0  0  0
133134  1  0  0  0
133 85  1  0  0  0
 78 80  1  0  0  0
 83 85  1  0  0  0
 83 81  1  0  0  0
 85 86  1  0  0  0
 82 81  2  0  0  0
 81 80  1  0  0  0
 80137  1  0  0  0
 86 88  1  0  0  0
 86 87  2  0  0  0
137139  1  0  0  0
137138  1  0  0  0
 88 90  1  0  0  0
 92 91  2  0  0  0
121119  1  0  0  0
 91 90  1  0  0  0
 91 93  1  0  0  0
 90128  1  0  0  0
 93 95  1  0  0  0
 95122  1  0  0  0
 95 96  1  0  0  0
123122  1  0  0  0
123124  1  0  0  0
128129  1  0  0  0
119120  1  0  0  0
119100  1  0  0  0
124125  2  0  0  0
124126  1  0  0  0
 98 96  1  0  0  0
 98100  1  0  0  0
 96 97  2  0  0  0
100101  1  0  0  0
102101  2  0  0  0
129130  2  0  0  0
129131  1  0  0  0
101103  1  0  0  0
107106  2  0  0  0
103105  1  0  0  0
106105  1  0  0  0
105108  1  0  0  0
108109  1  0  0  0
109110  1  0  0  0
110111  1  0  0  0
111114  2  0  0  0
114113  1  0  0  0
114112  1  0  0  0
 42 45  1  0  0  0
 42 46  1  0  0  0
 40 41  1  0  0  0
 35 36  1  0  0  0
 30 31  1  0  0  0
 25 26  1  0  0  0
 62 64  1  0  0  0
 20 21  1  0  0  0
 15 16  1  0  0  0
 72 74  1  0  0  0
  3  4  1  0  0  0
142143  1  0  0  0
 78 79  1  0  0  0
 83 84  1  0  0  0
 88 89  1  0  0  0
131132  1  0  0  0
 93 94  1  0  0  0
126127  1  0  0  0
 98 99  1  0  0  0
103104  1  0  0  0
112115  1  0  0  0
112116  1  0  0  0
113117  1  0  0  0
113118  1  0  0  0
M  END
> <MODEL>
    1                                                                     

> <minimizedAffinity>
-5.79982

> <CNNscore>
0.0684130415

> <CNNaffinity>
7.2686362267

> <CNN_VS>
0.4972695112

> <CNNaffinity_variance>
3.8862805367

$$$$
