


146145  0  0  0  0  0  0  0  0999 V2000
  -33.7295   63.2113   65.9706 C   0  0  0  0  0  0  0  0  0  0  0  0
  -32.4843   62.3562   66.1804 C   0  0  0  0  0  0  0  0  0  0  0  0
  -31.6051   62.7144   66.9669 O   0  0  0  0  0  0  0  0  0  0  0  0
  -32.2148   61.3954   65.3931 N   0  0  0  0  0  0  0  0  0  0  0  0
  -32.8122   61.2544   64.6234 H   0  0  0  0  0  0  0  0  0  0  0  0
  -31.0842   60.4866   65.5477 C   0  0  0  0  0  0  0  0  0  0  0  0
  -29.8253   61.1264   64.9654 C   0  0  0  0  0  0  0  0  0  0  0  0
  -28.8894   61.4486   65.7008 O   0  0  0  0  0  0  0  0  0  0  0  0
  -29.9399   61.5002   63.7332 N   0  0  0  0  0  0  0  0  0  0  0  0
  -30.7924   61.4178   63.2478 H   0  0  0  0  0  0  0  0  0  0  0  0
  -28.7483   62.0500   63.0943 C   0  0  0  0  0  0  0  0  0  0  0  0
  -29.1188   63.0420   61.9966 C   0  0  0  0  0  0  0  0  0  0  0  0
  -29.4783   62.6432   60.8872 O   0  0  0  0  0  0  0  0  0  0  0  0
  -28.9442   64.3183   62.3852 N   0  0  0  0  0  0  0  0  0  0  0  0
  -28.5869   64.5628   63.2694 H   0  0  0  0  0  0  0  0  0  0  0  0
  -29.3286   65.3089   61.3867 C   0  0  0  0  0  0  0  0  0  0  0  0
  -28.1159   66.1561   61.0077 C   0  0  0  0  0  0  0  0  0  0  0  0
  -27.2746   66.4625   61.8568 O   0  0  0  0  0  0  0  0  0  0  0  0
  -28.0831   66.5648   59.7561 N   0  0  0  0  0  0  0  0  0  0  0  0
  -28.8127   66.3315   59.1376 H   0  0  0  0  0  0  0  0  0  0  0  0
  -26.9547   67.3667   59.2957 C   0  0  0  0  0  0  0  0  0  0  0  0
  -25.6804   66.5313   59.2428 C   0  0  0  0  0  0  0  0  0  0  0  0
  -25.5471   65.6479   58.3935 O   0  0  0  0  0  0  0  0  0  0  0  0
  -24.7120   66.7512   60.0971 N   0  0  0  0  0  0  0  0  0  0  0  0
  -24.8434   67.4431   60.7850 H   0  0  0  0  0  0  0  0  0  0  0  0
  -23.4472   66.0212   60.0801 C   0  0  0  0  0  0  0  0  0  0  0  0
  -22.3108   66.9360   59.6269 C   0  0  0  0  0  0  0  0  0  0  0  0
  -23.1351   65.4316   61.4532 C   0  0  0  0  0  0  0  0  0  0  0  0
  -23.7588   64.4539   61.8712 O   0  0  0  0  0  0  0  0  0  0  0  0
  -22.2107   66.1248   62.1992 N   0  0  0  0  0  0  0  0  0  0  0  0
  -21.7959   66.9521   61.8633 H   0  0  0  0  0  0  0  0  0  0  0  0
  -21.8713   65.5808   63.5103 C   0  0  0  0  0  0  0  0  0  0  0  0
  -22.2669   66.5408   64.6268 C   0  0  0  0  0  0  0  0  0  0  0  0
  -22.3783   67.7480   64.4046 O   0  0  0  0  0  0  0  0  0  0  0  0
  -22.4020   66.1073   65.8638 N   0  0  0  0  0  0  0  0  0  0  0  0
  -22.3653   65.1371   66.0269 H   0  0  0  0  0  0  0  0  0  0  0  0
  -22.6034   66.9963   67.0037 C   0  0  0  0  0  0  0  0  0  0  0  0
  -21.8212   66.5120   68.2213 C   0  0  0  0  0  0  0  0  0  0  0  0
  -21.2661   65.4121   68.2113 O   0  0  0  0  0  0  0  0  0  0  0  0
  -24.0911   67.1037   67.3460 C   0  0  0  0  0  0  0  0  0  0  0  0
  -24.5771   66.0414   68.3185 C   0  0  0  0  0  0  0  0  0  0  0  0
  -25.2798   64.8981   67.6001 C   0  0  0  0  0  0  0  0  0  0  0  0
  -25.3202   65.1130   66.1561 N   0  0  0  0  0  0  0  0  0  0  0  0
  -26.5643   63.2201   65.7007 N   0  0  0  0  0  0  0  0  0  0  0  0
  -25.9030   64.6012   63.9945 N   0  0  0  0  0  0  0  0  0  0  0  0
  -25.9285   64.3107   65.2866 C   0  0  0  0  0  0  0  0  0  0  0  0
  -27.0112   62.6333   65.0485 H   0  0  0  0  0  0  0  0  0  0  0  0
  -26.5885   62.9986   66.6597 H   0  0  0  0  0  0  0  0  0  0  0  0
  -26.3521   64.0099   63.3481 H   0  0  0  0  0  0  0  0  0  0  0  0
  -25.4349   65.4084   63.6806 H   0  0  0  0  0  0  0  0  0  0  0  0
  -20.3750   65.2776   63.5935 C   0  0  0  0  0  0  0  0  0  0  0  0
  -19.7349   66.1526   64.5067 O   0  0  0  0  0  0  0  0  0  0  0  0
  -20.1193   66.0360   65.3896 H   0  0  0  0  0  0  0  0  0  0  0  0
  -26.7487   68.5770   60.2101 C   0  0  0  0  0  0  0  0  0  0  0  0
  -27.5109   69.8482   59.8334 C   0  0  0  0  0  0  0  0  0  0  0  0
  -26.5784   71.0552   59.8681 C   0  0  0  0  0  0  0  0  0  0  0  0
  -28.1517   69.7017   58.4579 C   0  0  0  0  0  0  0  0  0  0  0  0
  -30.4744   66.2110   61.8972 C   0  0  0  0  0  0  0  0  0  0  0  0
  -30.2483   67.6651   61.4703 C   0  0  0  0  0  0  0  0  0  0  0  0
  -31.8263   65.6954   61.3915 C   0  0  0  0  0  0  0  0  0  0  0  0
  -31.7844   65.1304   59.9781 C   0  0  0  0  0  0  0  0  0  0  0  0
  -27.8803   60.9278   62.5190 C   0  0  0  0  0  0  0  0  0  0  0  0
  -26.4421   60.9462   63.0159 C   0  0  0  0  0  0  0  0  0  0  0  0
  -25.9783   59.6044   63.5610 C   0  0  0  0  0  0  0  0  0  0  0  0
  -24.7904   59.2549   63.3820 O   0  0  0  0  0  0  0  0  0  0  0  0
  -26.8111   58.8972   64.1718 O   0  0  0  0  0  0  0  0  0  0  0  0
  -24.2014   59.8171   62.9184 H   0  0  0  0  0  0  0  0  0  0  0  0
  -31.3568   59.1258   64.8686 C   0  0  0  0  0  0  0  0  0  0  0  0
  -32.2326   59.3085   63.6249 C   0  0  0  0  0  0  0  0  0  0  0  0
  -30.0363   58.4330   64.5121 C   0  0  0  0  0  0  0  0  0  0  0  0
  -30.2041   57.1811   63.6616 C   0  0  0  0  0  0  0  0  0  0  0  0
  -35.8306   62.4339   65.3284 C   0  0  0  0  0  0  0  0  0  0  0  0
  -35.5627   62.7166   64.1589 O   0  0  0  0  0  0  0  0  0  0  0  0
  -34.9388   62.4480   66.2552 N   0  0  0  0  0  0  0  0  0  0  0  0
  -35.0654   61.9712   67.1072 H   0  0  0  0  0  0  0  0  0  0  0  0
  -37.1201   61.6915   65.6703 C   0  0  0  0  0  0  0  0  0  0  0  0
  -36.9550   60.1955   65.3457 C   0  0  0  0  0  0  0  0  0  0  0  0
  -37.3782   59.8928   63.9123 C   0  0  0  0  0  0  0  0  0  0  0  0
  -35.5807   59.8244   65.5154 O   0  0  0  0  0  0  0  0  0  0  0  0
  -35.0290   60.3400   64.9066 H   0  0  0  0  0  0  0  0  0  0  0  0
  -39.4496   62.4229   65.6552 C   0  0  0  0  0  0  0  0  0  0  0  0
  -39.5374   62.3185   66.8803 O   0  0  0  0  0  0  0  0  0  0  0  0
  -38.2530   62.2672   64.9552 N   0  0  0  0  0  0  0  0  0  0  0  0
  -38.1762   62.5366   64.0114 H   0  0  0  0  0  0  0  0  0  0  0  0
  -40.6285   62.9446   64.8360 C   0  0  0  0  0  0  0  0  0  0  0  0
  -42.5472   61.7845   63.8673 C   0  0  0  0  0  0  0  0  0  0  0  0
  -42.2837   62.2859   62.7727 O   0  0  0  0  0  0  0  0  0  0  0  0
  -41.7597   62.0243   64.9002 N   0  0  0  0  0  0  0  0  0  0  0  0
  -41.9436   61.5625   65.7499 H   0  0  0  0  0  0  0  0  0  0  0  0
  -43.7214   60.8205   64.0152 C   0  0  0  0  0  0  0  0  0  0  0  0
  -46.0677   60.8490   63.4146 C   0  0  0  0  0  0  0  0  0  0  0  0
  -46.3665   60.3793   64.5144 O   0  0  0  0  0  0  0  0  0  0  0  0
  -44.7980   61.1532   63.0868 N   0  0  0  0  0  0  0  0  0  0  0  0
  -44.5975   61.5953   62.2303 H   0  0  0  0  0  0  0  0  0  0  0  0
  -47.1509   61.1765   62.3895 C   0  0  0  0  0  0  0  0  0  0  0  0
  -49.2571   62.0725   62.5904 C   0  0  0  0  0  0  0  0  0  0  0  0
  -49.6300   60.9254   62.3381 O   0  0  0  0  0  0  0  0  0  0  0  0
  -48.0093   62.2591   62.8602 N   0  0  0  0  0  0  0  0  0  0  0  0
  -47.6703   63.0518   63.3356 H   0  0  0  0  0  0  0  0  0  0  0  0
  -50.2576   63.1296   63.0495 C   0  0  0  0  0  0  0  0  0  0  0  0
  -49.4359   64.7881   64.3956 C   0  0  0  0  0  0  0  0  0  0  0  0
  -49.4259   63.7782   65.1026 O   0  0  0  0  0  0  0  0  0  0  0  0
  -49.6322   64.4462   63.1013 N   0  0  0  0  0  0  0  0  0  0  0  0
  -49.3918   64.9967   62.3212 H   0  0  0  0  0  0  0  0  0  0  0  0
  -48.6778   66.0328   64.8186 C   0  0  0  0  0  0  0  0  0  0  0  0
  -47.4063   66.7279   66.6508 C   0  0  0  0  0  0  0  0  0  0  0  0
  -48.2985   67.5792   66.6908 O   0  0  0  0  0  0  0  0  0  0  0  0
  -47.6102   65.7572   65.7660 N   0  0  0  0  0  0  0  0  0  0  0  0
  -47.0845   64.9249   65.7533 H   0  0  0  0  0  0  0  0  0  0  0  0
  -46.2097   66.8185   67.5924 C   0  0  0  0  0  0  0  0  0  0  0  0
  -47.4037   67.1560   69.8623 C   0  0  0  0  0  0  0  0  0  0  0  0
  -48.0286   66.1049   70.0189 O   0  0  0  0  0  0  0  0  0  0  0  0
  -46.5985   67.4020   68.8713 N   0  0  0  0  0  0  0  0  0  0  0  0
  -46.0998   68.2352   69.0336 H   0  0  0  0  0  0  0  0  0  0  0  0
  -46.3609   68.2169   71.8467 N   0  0  0  0  0  0  0  0  0  0  0  0
  -47.4697   68.2540   70.9067 C   0  0  0  0  0  0  0  0  0  0  0  0
  -46.4610   68.9760   72.5206 H   0  0  0  0  0  0  0  0  0  0  0  0
  -45.4821   68.3254   71.3403 H   0  0  0  0  0  0  0  0  0  0  0  0
  -45.6027   65.4278   67.7997 C   0  0  0  0  0  0  0  0  0  0  0  0
  -44.1378   65.3867   68.2384 C   0  0  0  0  0  0  0  0  0  0  0  0
  -43.5968   63.9638   68.1453 C   0  0  0  0  0  0  0  0  0  0  0  0
  -43.2991   66.3399   67.3939 C   0  0  0  0  0  0  0  0  0  0  0  0
  -51.4781   63.1277   62.1101 C   0  0  0  0  0  0  0  0  0  0  0  0
  -52.6595   63.8571   62.7418 C   0  0  0  0  0  0  0  0  0  0  0  0
  -51.1298   63.7790   60.8824 O   0  0  0  0  0  0  0  0  0  0  0  0
  -50.8753   64.6971   61.0644 H   0  0  0  0  0  0  0  0  0  0  0  0
  -46.5125   61.5407   61.0478 C   0  0  0  0  0  0  0  0  0  0  0  0
  -46.8156   60.5330   59.9538 C   0  0  0  0  0  0  0  0  0  0  0  0
  -47.9555   60.0244   59.8912 O   0  0  0  0  0  0  0  0  0  0  0  0
  -45.9046   60.2414   59.1484 O   0  0  0  0  0  0  0  0  0  0  0  0
  -48.6123   60.2685   60.5133 H   0  0  0  0  0  0  0  0  0  0  0  0
  -43.2501   59.3800   63.7976 C   0  0  0  0  0  0  0  0  0  0  0  0
  -41.8742   59.2738   63.1586 C   0  0  0  0  0  0  0  0  0  0  0  0
  -40.8308   58.6556   64.0766 C   0  0  0  0  0  0  0  0  0  0  0  0
  -40.6421   59.1587   65.2065 O   0  0  0  0  0  0  0  0  0  0  0  0
  -40.1975   57.6598   63.6602 O   0  0  0  0  0  0  0  0  0  0  0  0
  -40.3726   57.3168   62.8059 H   0  0  0  0  0  0  0  0  0  0  0  0
  -41.0382   64.3335   65.3292 C   0  0  0  0  0  0  0  0  0  0  0  0
  -41.0661   65.3723   64.2215 C   0  0  0  0  0  0  0  0  0  0  0  0
  -41.0099   66.5841   64.5213 O   0  0  0  0  0  0  0  0  0  0  0  0
  -41.1472   64.9749   63.0390 O   0  0  0  0  0  0  0  0  0  0  0  0
  -41.1873   64.0570   62.8549 H   0  0  0  0  0  0  0  0  0  0  0  0
  -33.6614   64.4578   66.8571 C   0  0  0  0  0  0  0  0  0  0  0  0
  -33.9621   65.7933   66.1740 C   0  0  0  0  0  0  0  0  0  0  0  0
  -33.4749   66.9525   67.0365 C   0  0  0  0  0  0  0  0  0  0  0  0
  -33.3224   65.8431   64.7905 C   0  0  0  0  0  0  0  0  0  0  0  0
130128  2  0  0  0
128129  1  0  0  0
128127  1  0  0  0
127 95  1  0  0  0
122120  1  0  0  0
115116  1  0  0  0
135134  2  0  0  0
145144  1  0  0  0
120121  1  0  0  0
120119  1  0  0  0
116111  1  0  0  0
 95 98  1  0  0  0
 95 91  1  0  0  0
146144  1  0  0  0
111113  1  0  0  0
111112  2  0  0  0
113110  1  0  0  0
134133  1  0  0  0
134136  1  0  0  0
110119  1  0  0  0
110106  1  0  0  0
 98 96  1  0  0  0
125123  1  0  0  0
144143  1  0  0  0
133132  1  0  0  0
 91 92  2  0  0  0
 91 93  1  0  0  0
 93 90  1  0  0  0
123100  1  0  0  0
123124  1  0  0  0
 96 97  2  0  0  0
 96100  1  0  0  0
106108  1  0  0  0
106107  2  0  0  0
103100  1  0  0  0
103101  1  0  0  0
108105  1  0  0  0
 90132  1  0  0  0
 90 86  1  0  0  0
143  1  1  0  0  0
101105  1  0  0  0
101102  2  0  0  0
 78 77  1  0  0  0
 77 79  1  0  0  0
 77 76  1  0  0  0
 61 60  1  0  0  0
  1 74  1  0  0  0
  1  2  1  0  0  0
 86 87  2  0  0  0
 86 88  1  0  0  0
 74 72  1  0  0  0
 72 76  1  0  0  0
 72 73  2  0  0  0
 88 85  1  0  0  0
 76 83  1  0  0  0
 83 81  1  0  0  0
  2  3  2  0  0  0
  2  4  1  0  0  0
 60 58  1  0  0  0
 44 46  1  0  0  0
 59 58  1  0  0  0
 56 55  1  0  0  0
 57 55  1  0  0  0
 58 16  1  0  0  0
 55 54  1  0  0  0
 81 85  1  0  0  0
 81 82  2  0  0  0
 85138  1  0  0  0
  4  6  1  0  0  0
 45 46  1  0  0  0
 46 43  2  0  0  0
138139  1  0  0  0
 70 71  1  0  0  0
 70 68  1  0  0  0
139140  2  0  0  0
139141  1  0  0  0
 16 14  1  0  0  0
 16 17  1  0  0  0
  6 68  1  0  0  0
  6  7  1  0  0  0
 43 42  1  0  0  0
 14 12  1  0  0  0
 42 41  1  0  0  0
 54 21  1  0  0  0
 19 17  1  0  0  0
 19 21  1  0  0  0
 17 18  2  0  0  0
  9  7  1  0  0  0
  9 11  1  0  0  0
 68 69  1  0  0  0
 21 22  1  0  0  0
  7  8  2  0  0  0
 66 64  2  0  0  0
 62 11  1  0  0  0
 62 63  1  0  0  0
 12 11  1  0  0  0
 12 13  2  0  0  0
 41 40  1  0  0  0
 64 63  1  0  0  0
 64 65  1  0  0  0
 22 23  2  0  0  0
 22 24  1  0  0  0
 40 37  1  0  0  0
 24 26  1  0  0  0
 37 35  1  0  0  0
 37 38  1  0  0  0
 35 33  1  0  0  0
 30 32  1  0  0  0
 30 28  1  0  0  0
 51 52  1  0  0  0
 51 32  1  0  0  0
 26 27  1  0  0  0
 26 28  1  0  0  0
 33 32  1  0  0  0
 33 34  2  0  0  0
 38 39  2  0  0  0
 28 29  2  0  0  0
115117  1  0  0  0
115118  1  0  0  0
113114  1  0  0  0
108109  1  0  0  0
103104  1  0  0  0
125126  1  0  0  0
 98 99  1  0  0  0
129131  1  0  0  0
 93 94  1  0  0  0
136137  1  0  0  0
 88 89  1  0  0  0
141142  1  0  0  0
 83 84  1  0  0  0
 79 80  1  0  0  0
 74 75  1  0  0  0
  4  5  1  0  0  0
  9 10  1  0  0  0
 65 67  1  0  0  0
 14 15  1  0  0  0
 19 20  1  0  0  0
 24 25  1  0  0  0
 30 31  1  0  0  0
 52 53  1  0  0  0
 35 36  1  0  0  0
 44 47  1  0  0  0
 44 48  1  0  0  0
 45 49  1  0  0  0
 45 50  1  0  0  0
M  END
> <MODEL>
    1                                                                     

> <minimizedAffinity>
-9.07453

> <CNNscore>
0.2111310214

> <CNNaffinity>
6.8051223755

> <CNN_VS>
1.4367724657

> <CNNaffinity_variance>
1.6230175495

$$$$



146145  0  0  0  0  0  0  0  0999 V2000
  -32.1017   62.2640   65.6536 C   0  0  0  0  0  0  0  0  0  0  0  0
  -30.6608   61.7676   65.5998 C   0  0  0  0  0  0  0  0  0  0  0  0
  -29.9030   61.9431   66.5564 O   0  0  0  0  0  0  0  0  0  0  0  0
  -30.1463   61.3815   64.5037 N   0  0  0  0  0  0  0  0  0  0  0  0
  -30.6953   61.4568   63.6899 H   0  0  0  0  0  0  0  0  0  0  0  0
  -28.8010   60.8346   64.3642 C   0  0  0  0  0  0  0  0  0  0  0  0
  -27.8848   61.8767   63.7255 C   0  0  0  0  0  0  0  0  0  0  0  0
  -27.2550   61.6115   62.6992 O   0  0  0  0  0  0  0  0  0  0  0  0
  -27.6599   62.9122   64.4659 N   0  0  0  0  0  0  0  0  0  0  0  0
  -28.0165   62.9775   65.3812 H   0  0  0  0  0  0  0  0  0  0  0  0
  -26.8533   63.9803   63.8836 C   0  0  0  0  0  0  0  0  0  0  0  0
  -27.6732   64.8245   62.9134 C   0  0  0  0  0  0  0  0  0  0  0  0
  -27.2184   65.1286   61.8090 O   0  0  0  0  0  0  0  0  0  0  0  0
  -28.8516   65.2036   63.4406 N   0  0  0  0  0  0  0  0  0  0  0  0
  -29.1218   64.9789   64.3602 H   0  0  0  0  0  0  0  0  0  0  0  0
  -29.6949   65.9753   62.5353 C   0  0  0  0  0  0  0  0  0  0  0  0
  -30.3943   67.0914   63.3080 C   0  0  0  0  0  0  0  0  0  0  0  0
  -29.9142   67.5223   64.3599 O   0  0  0  0  0  0  0  0  0  0  0  0
  -31.5419   67.4934   62.8021 N   0  0  0  0  0  0  0  0  0  0  0  0
  -31.9004   67.0733   61.9870 H   0  0  0  0  0  0  0  0  0  0  0  0
  -32.2764   68.5675   63.4618 C   0  0  0  0  0  0  0  0  0  0  0  0
  -33.7745   68.2848   63.4553 C   0  0  0  0  0  0  0  0  0  0  0  0
  -34.2173   67.2740   62.9058 O   0  0  0  0  0  0  0  0  0  0  0  0
  -34.6042   69.1120   64.0411 N   0  0  0  0  0  0  0  0  0  0  0  0
  -34.2380   69.9273   64.4540 H   0  0  0  0  0  0  0  0  0  0  0  0
  -36.0451   68.8854   64.1126 C   0  0  0  0  0  0  0  0  0  0  0  0
  -36.5840   69.3117   65.4770 C   0  0  0  0  0  0  0  0  0  0  0  0
  -36.7744   69.6334   62.9994 C   0  0  0  0  0  0  0  0  0  0  0  0
  -36.2214   69.8398   61.9172 O   0  0  0  0  0  0  0  0  0  0  0  0
  -38.0115   70.1329   63.3333 N   0  0  0  0  0  0  0  0  0  0  0  0
  -38.3839   70.0202   64.2377 H   0  0  0  0  0  0  0  0  0  0  0  0
  -38.7483   70.8375   62.2889 C   0  0  0  0  0  0  0  0  0  0  0  0
  -39.6483   69.8856   61.5087 C   0  0  0  0  0  0  0  0  0  0  0  0
  -39.4256   68.6733   61.5070 O   0  0  0  0  0  0  0  0  0  0  0  0
  -40.6179   70.3545   60.7496 N   0  0  0  0  0  0  0  0  0  0  0  0
  -40.8260   71.3157   60.7958 H   0  0  0  0  0  0  0  0  0  0  0  0
  -41.3983   69.5176   59.8436 C   0  0  0  0  0  0  0  0  0  0  0  0
  -40.8114   69.5392   58.4352 C   0  0  0  0  0  0  0  0  0  0  0  0
  -41.4505   69.0867   57.4841 O   0  0  0  0  0  0  0  0  0  0  0  0
  -42.8578   69.9769   59.8098 C   0  0  0  0  0  0  0  0  0  0  0  0
  -43.5156   70.0383   61.1787 C   0  0  0  0  0  0  0  0  0  0  0  0
  -45.0329   69.9660   61.0791 C   0  0  0  0  0  0  0  0  0  0  0  0
  -45.4657   68.8401   60.2557 N   0  0  0  0  0  0  0  0  0  0  0  0
  -46.0677   67.5000   62.0389 N   0  0  0  0  0  0  0  0  0  0  0  0
  -46.3105   66.7359   59.8911 N   0  0  0  0  0  0  0  0  0  0  0  0
  -45.9465   67.6941   60.7302 C   0  0  0  0  0  0  0  0  0  0  0  0
  -46.4249   66.6480   62.3792 H   0  0  0  0  0  0  0  0  0  0  0  0
  -45.8004   68.2082   62.6684 H   0  0  0  0  0  0  0  0  0  0  0  0
  -46.6668   65.8865   60.2385 H   0  0  0  0  0  0  0  0  0  0  0  0
  -46.2247   66.8733   58.9200 H   0  0  0  0  0  0  0  0  0  0  0  0
  -37.7833   71.5389   61.3327 C   0  0  0  0  0  0  0  0  0  0  0  0
  -37.9423   71.0516   60.0111 O   0  0  0  0  0  0  0  0  0  0  0  0
  -38.8484   71.2229   59.7101 H   0  0  0  0  0  0  0  0  0  0  0  0
  -31.9945   69.9080   62.7784 C   0  0  0  0  0  0  0  0  0  0  0  0
  -31.1973   70.9287   63.5917 C   0  0  0  0  0  0  0  0  0  0  0  0
  -31.3708   70.6685   65.0850 C   0  0  0  0  0  0  0  0  0  0  0  0
  -29.7230   70.8887   63.2055 C   0  0  0  0  0  0  0  0  0  0  0  0
  -30.7361   65.0778   61.8297 C   0  0  0  0  0  0  0  0  0  0  0  0
  -30.6707   65.2664   60.3104 C   0  0  0  0  0  0  0  0  0  0  0  0
  -30.5199   63.6086   62.2091 C   0  0  0  0  0  0  0  0  0  0  0  0
  -30.1647   62.7106   61.0319 C   0  0  0  0  0  0  0  0  0  0  0  0
  -25.6275   63.4015   63.1721 C   0  0  0  0  0  0  0  0  0  0  0  0
  -24.3317   64.1365   63.4830 C   0  0  0  0  0  0  0  0  0  0  0  0
  -23.6036   64.6213   62.2390 C   0  0  0  0  0  0  0  0  0  0  0  0
  -24.2736   64.9785   61.2446 O   0  0  0  0  0  0  0  0  0  0  0  0
  -22.3523   64.6432   62.2600 O   0  0  0  0  0  0  0  0  0  0  0  0
  -25.2095   64.9453   61.2738 H   0  0  0  0  0  0  0  0  0  0  0  0
  -28.8032   59.5370   63.5254 C   0  0  0  0  0  0  0  0  0  0  0  0
  -27.5263   58.7287   63.7774 C   0  0  0  0  0  0  0  0  0  0  0  0
  -30.0508   58.7021   63.8370 C   0  0  0  0  0  0  0  0  0  0  0  0
  -29.8639   57.2061   63.6222 C   0  0  0  0  0  0  0  0  0  0  0  0
  -33.5933   60.4955   65.3726 C   0  0  0  0  0  0  0  0  0  0  0  0
  -33.2096   60.3748   64.2074 O   0  0  0  0  0  0  0  0  0  0  0  0
  -32.9815   61.2474   66.2180 N   0  0  0  0  0  0  0  0  0  0  0  0
  -33.1003   61.1425   67.1897 H   0  0  0  0  0  0  0  0  0  0  0  0
  -34.5654   59.4851   65.9768 C   0  0  0  0  0  0  0  0  0  0  0  0
  -33.8499   58.1361   66.1740 C   0  0  0  0  0  0  0  0  0  0  0  0
  -32.4007   58.3387   66.6032 C   0  0  0  0  0  0  0  0  0  0  0  0
  -34.5347   57.3815   67.1824 O   0  0  0  0  0  0  0  0  0  0  0  0
  -34.5177   57.8708   68.0198 H   0  0  0  0  0  0  0  0  0  0  0  0
  -36.8590   60.1276   65.4399 C   0  0  0  0  0  0  0  0  0  0  0  0
  -36.8206   61.0842   66.2164 O   0  0  0  0  0  0  0  0  0  0  0  0
  -35.7484   59.3399   65.1367 N   0  0  0  0  0  0  0  0  0  0  0  0
  -35.7627   58.7080   64.3819 H   0  0  0  0  0  0  0  0  0  0  0  0
  -38.1004   59.8714   64.5876 C   0  0  0  0  0  0  0  0  0  0  0  0
  -39.4083   61.7888   63.8272 C   0  0  0  0  0  0  0  0  0  0  0  0
  -40.1616   61.6436   64.7919 O   0  0  0  0  0  0  0  0  0  0  0  0
  -38.3624   60.9937   63.6920 N   0  0  0  0  0  0  0  0  0  0  0  0
  -37.7322   61.1655   62.9553 H   0  0  0  0  0  0  0  0  0  0  0  0
  -39.6247   62.9336   62.8410 C   0  0  0  0  0  0  0  0  0  0  0  0
  -40.8056   65.0425   62.9973 C   0  0  0  0  0  0  0  0  0  0  0  0
  -41.4423   64.7745   61.9764 O   0  0  0  0  0  0  0  0  0  0  0  0
  -39.9231   64.1815   63.5377 N   0  0  0  0  0  0  0  0  0  0  0  0
  -39.4837   64.3910   64.3935 H   0  0  0  0  0  0  0  0  0  0  0  0
  -41.0479   66.3531   63.7423 C   0  0  0  0  0  0  0  0  0  0  0  0
  -43.1684   66.9687   64.3776 C   0  0  0  0  0  0  0  0  0  0  0  0
  -43.2580   67.3796   63.2193 O   0  0  0  0  0  0  0  0  0  0  0  0
  -42.1580   66.2260   64.6814 N   0  0  0  0  0  0  0  0  0  0  0  0
  -42.1379   65.6333   65.4673 H   0  0  0  0  0  0  0  0  0  0  0  0
  -44.4005   66.9086   65.2763 C   0  0  0  0  0  0  0  0  0  0  0  0
  -45.3624   64.9681   66.0161 C   0  0  0  0  0  0  0  0  0  0  0  0
  -45.8300   65.1383   64.8881 O   0  0  0  0  0  0  0  0  0  0  0  0
  -44.3064   65.7916   66.2095 N   0  0  0  0  0  0  0  0  0  0  0  0
  -43.5908   65.6586   66.8724 H   0  0  0  0  0  0  0  0  0  0  0  0
  -45.5106   63.6310   66.7182 C   0  0  0  0  0  0  0  0  0  0  0  0
  -45.1809   61.5919   65.6272 C   0  0  0  0  0  0  0  0  0  0  0  0
  -44.1963   61.5835   66.3707 O   0  0  0  0  0  0  0  0  0  0  0  0
  -46.0336   62.5862   65.8533 N   0  0  0  0  0  0  0  0  0  0  0  0
  -46.9395   62.6128   65.4688 H   0  0  0  0  0  0  0  0  0  0  0  0
  -45.3654   60.5005   64.5777 C   0  0  0  0  0  0  0  0  0  0  0  0
  -47.5154   59.1386   64.1145 C   0  0  0  0  0  0  0  0  0  0  0  0
  -47.1052   57.9818   63.9989 O   0  0  0  0  0  0  0  0  0  0  0  0
  -46.7758   60.1629   64.4222 N   0  0  0  0  0  0  0  0  0  0  0  0
  -47.3388   60.9493   64.6061 H   0  0  0  0  0  0  0  0  0  0  0  0
  -49.8411   58.5229   64.7173 N   0  0  0  0  0  0  0  0  0  0  0  0
  -48.9944   59.4481   63.9813 C   0  0  0  0  0  0  0  0  0  0  0  0
  -50.8193   58.7818   64.5892 H   0  0  0  0  0  0  0  0  0  0  0  0
  -49.6060   58.5622   65.7090 H   0  0  0  0  0  0  0  0  0  0  0  0
  -44.7727   60.9567   63.2412 C   0  0  0  0  0  0  0  0  0  0  0  0
  -43.7014   60.0510   62.6311 C   0  0  0  0  0  0  0  0  0  0  0  0
  -42.7440   60.8687   61.7704 C   0  0  0  0  0  0  0  0  0  0  0  0
  -42.9431   59.3068   63.7249 C   0  0  0  0  0  0  0  0  0  0  0  0
  -44.5617   68.2468   66.0215 C   0  0  0  0  0  0  0  0  0  0  0  0
  -45.6001   69.1334   65.3413 C   0  0  0  0  0  0  0  0  0  0  0  0
  -44.9774   67.9900   67.3682 O   0  0  0  0  0  0  0  0  0  0  0  0
  -45.8314   67.5301   67.3609 H   0  0  0  0  0  0  0  0  0  0  0  0
  -39.7744   66.7874   64.4705 C   0  0  0  0  0  0  0  0  0  0  0  0
  -39.9885   67.9876   65.3749 C   0  0  0  0  0  0  0  0  0  0  0  0
  -39.6904   67.9006   66.5855 O   0  0  0  0  0  0  0  0  0  0  0  0
  -40.4634   69.0299   64.8730 O   0  0  0  0  0  0  0  0  0  0  0  0
  -39.3365   67.1020   66.9246 H   0  0  0  0  0  0  0  0  0  0  0  0
  -38.3922   63.0983   61.9476 C   0  0  0  0  0  0  0  0  0  0  0  0
  -37.6245   64.3882   62.1917 C   0  0  0  0  0  0  0  0  0  0  0  0
  -36.6988   64.3182   63.3965 C   0  0  0  0  0  0  0  0  0  0  0  0
  -36.1821   63.2205   63.7020 O   0  0  0  0  0  0  0  0  0  0  0  0
  -36.4900   65.3716   64.0394 O   0  0  0  0  0  0  0  0  0  0  0  0
  -36.8990   66.1715   63.7737 H   0  0  0  0  0  0  0  0  0  0  0  0
  -37.9330   58.5766   63.7904 C   0  0  0  0  0  0  0  0  0  0  0  0
  -38.9336   57.5038   64.1837 C   0  0  0  0  0  0  0  0  0  0  0  0
  -38.6228   56.6747   65.0655 O   0  0  0  0  0  0  0  0  0  0  0  0
  -40.0416   57.4866   63.6049 O   0  0  0  0  0  0  0  0  0  0  0  0
  -40.2372   58.1260   62.9484 H   0  0  0  0  0  0  0  0  0  0  0  0
  -32.1784   63.5545   66.4740 C   0  0  0  0  0  0  0  0  0  0  0  0
  -32.1658   64.8635   65.6821 C   0  0  0  0  0  0  0  0  0  0  0  0
  -33.1320   64.7816   64.5053 C   0  0  0  0  0  0  0  0  0  0  0  0
  -32.5150   66.0402   66.5871 C   0  0  0  0  0  0  0  0  0  0  0  0
130128  2  0  0  0
128129  1  0  0  0
128127  1  0  0  0
127 95  1  0  0  0
122120  1  0  0  0
115116  1  0  0  0
135134  2  0  0  0
145144  1  0  0  0
120121  1  0  0  0
120119  1  0  0  0
116111  1  0  0  0
 95 98  1  0  0  0
 95 91  1  0  0  0
146144  1  0  0  0
111113  1  0  0  0
111112  2  0  0  0
113110  1  0  0  0
134133  1  0  0  0
134136  1  0  0  0
110119  1  0  0  0
110106  1  0  0  0
 98 96  1  0  0  0
125123  1  0  0  0
144143  1  0  0  0
133132  1  0  0  0
 91 92  2  0  0  0
 91 93  1  0  0  0
 93 90  1  0  0  0
123100  1  0  0  0
123124  1  0  0  0
 96 97  2  0  0  0
 96100  1  0  0  0
106108  1  0  0  0
106107  2  0  0  0
103100  1  0  0  0
103101  1  0  0  0
108105  1  0  0  0
 90132  1  0  0  0
 90 86  1  0  0  0
143  1  1  0  0  0
101105  1  0  0  0
101102  2  0  0  0
 78 77  1  0  0  0
 77 79  1  0  0  0
 77 76  1  0  0  0
 61 60  1  0  0  0
  1 74  1  0  0  0
  1  2  1  0  0  0
 86 87  2  0  0  0
 86 88  1  0  0  0
 74 72  1  0  0  0
 72 76  1  0  0  0
 72 73  2  0  0  0
 88 85  1  0  0  0
 76 83  1  0  0  0
 83 81  1  0  0  0
  2  3  2  0  0  0
  2  4  1  0  0  0
 60 58  1  0  0  0
 44 46  1  0  0  0
 59 58  1  0  0  0
 56 55  1  0  0  0
 57 55  1  0  0  0
 58 16  1  0  0  0
 55 54  1  0  0  0
 81 85  1  0  0  0
 81 82  2  0  0  0
 85138  1  0  0  0
  4  6  1  0  0  0
 45 46  1  0  0  0
 46 43  2  0  0  0
138139  1  0  0  0
 70 71  1  0  0  0
 70 68  1  0  0  0
139140  2  0  0  0
139141  1  0  0  0
 16 14  1  0  0  0
 16 17  1  0  0  0
  6 68  1  0  0  0
  6  7  1  0  0  0
 43 42  1  0  0  0
 14 12  1  0  0  0
 42 41  1  0  0  0
 54 21  1  0  0  0
 19 17  1  0  0  0
 19 21  1  0  0  0
 17 18  2  0  0  0
  9  7  1  0  0  0
  9 11  1  0  0  0
 68 69  1  0  0  0
 21 22  1  0  0  0
  7  8  2  0  0  0
 66 64  2  0  0  0
 62 11  1  0  0  0
 62 63  1  0  0  0
 12 11  1  0  0  0
 12 13  2  0  0  0
 41 40  1  0  0  0
 64 63  1  0  0  0
 64 65  1  0  0  0
 22 23  2  0  0  0
 22 24  1  0  0  0
 40 37  1  0  0  0
 24 26  1  0  0  0
 37 35  1  0  0  0
 37 38  1  0  0  0
 35 33  1  0  0  0
 30 32  1  0  0  0
 30 28  1  0  0  0
 51 52  1  0  0  0
 51 32  1  0  0  0
 26 27  1  0  0  0
 26 28  1  0  0  0
 33 32  1  0  0  0
 33 34  2  0  0  0
 38 39  2  0  0  0
 28 29  2  0  0  0
115117  1  0  0  0
115118  1  0  0  0
113114  1  0  0  0
108109  1  0  0  0
103104  1  0  0  0
125126  1  0  0  0
 98 99  1  0  0  0
129131  1  0  0  0
 93 94  1  0  0  0
136137  1  0  0  0
 88 89  1  0  0  0
141142  1  0  0  0
 83 84  1  0  0  0
 79 80  1  0  0  0
 74 75  1  0  0  0
  4  5  1  0  0  0
  9 10  1  0  0  0
 65 67  1  0  0  0
 14 15  1  0  0  0
 19 20  1  0  0  0
 24 25  1  0  0  0
 30 31  1  0  0  0
 52 53  1  0  0  0
 35 36  1  0  0  0
 44 47  1  0  0  0
 44 48  1  0  0  0
 45 49  1  0  0  0
 45 50  1  0  0  0
M  END
> <MODEL>
    1                                                                     

> <minimizedAffinity>
-7.96683

> <CNNscore>
0.1317697912

> <CNNaffinity>
7.5025496483

> <CNN_VS>
0.9886093736

> <CNNaffinity_variance>
2.6714050770

$$$$



146145  0  0  0  0  0  0  0  0999 V2000
  -34.1774   62.8304   65.7227 C   0  0  0  0  0  0  0  0  0  0  0  0
  -32.8875   62.0819   66.0414 C   0  0  0  0  0  0  0  0  0  0  0  0
  -32.2304   62.3677   67.0446 O   0  0  0  0  0  0  0  0  0  0  0  0
  -32.3438   61.3254   65.1768 N   0  0  0  0  0  0  0  0  0  0  0  0
  -32.7602   61.2769   64.2860 H   0  0  0  0  0  0  0  0  0  0  0  0
  -31.1474   60.5236   65.4091 C   0  0  0  0  0  0  0  0  0  0  0  0
  -29.9243   61.2496   64.8521 C   0  0  0  0  0  0  0  0  0  0  0  0
  -29.5014   62.2719   65.3965 O   0  0  0  0  0  0  0  0  0  0  0  0
  -29.5553   60.8477   63.6801 N   0  0  0  0  0  0  0  0  0  0  0  0
  -30.0662   60.1670   63.1852 H   0  0  0  0  0  0  0  0  0  0  0  0
  -28.3471   61.4487   63.1238 C   0  0  0  0  0  0  0  0  0  0  0  0
  -28.6851   62.4513   62.0252 C   0  0  0  0  0  0  0  0  0  0  0  0
  -28.6238   62.1244   60.8385 O   0  0  0  0  0  0  0  0  0  0  0  0
  -28.9770   63.6679   62.5202 N   0  0  0  0  0  0  0  0  0  0  0  0
  -28.9399   63.8758   63.4818 H   0  0  0  0  0  0  0  0  0  0  0  0
  -29.3528   64.6527   61.5126 C   0  0  0  0  0  0  0  0  0  0  0  0
  -28.3575   65.8107   61.5273 C   0  0  0  0  0  0  0  0  0  0  0  0
  -28.4119   66.6956   60.6690 O   0  0  0  0  0  0  0  0  0  0  0  0
  -27.4350   65.7489   62.4652 N   0  0  0  0  0  0  0  0  0  0  0  0
  -27.4111   64.9882   63.0898 H   0  0  0  0  0  0  0  0  0  0  0  0
  -26.4490   66.8191   62.5692 C   0  0  0  0  0  0  0  0  0  0  0  0
  -25.0477   66.2975   62.2713 C   0  0  0  0  0  0  0  0  0  0  0  0
  -24.8294   65.6399   61.2518 O   0  0  0  0  0  0  0  0  0  0  0  0
  -24.0611   66.5507   63.0949 N   0  0  0  0  0  0  0  0  0  0  0  0
  -24.2561   67.0557   63.9171 H   0  0  0  0  0  0  0  0  0  0  0  0
  -22.6861   66.1213   62.8543 C   0  0  0  0  0  0  0  0  0  0  0  0
  -21.7209   67.2878   63.0576 C   0  0  0  0  0  0  0  0  0  0  0  0
  -22.3070   64.9570   63.7660 C   0  0  0  0  0  0  0  0  0  0  0  0
  -22.8977   63.8783   63.6825 O   0  0  0  0  0  0  0  0  0  0  0  0
  -21.3620   65.2389   64.7247 N   0  0  0  0  0  0  0  0  0  0  0  0
  -20.9742   66.1393   64.8145 H   0  0  0  0  0  0  0  0  0  0  0  0
  -20.9589   64.1452   65.6031 C   0  0  0  0  0  0  0  0  0  0  0  0
  -20.7163   64.6386   67.0252 C   0  0  0  0  0  0  0  0  0  0  0  0
  -19.6185   64.4829   67.5634 O   0  0  0  0  0  0  0  0  0  0  0  0
  -21.7032   65.1517   67.7316 N   0  0  0  0  0  0  0  0  0  0  0  0
  -22.5618   65.3233   67.2815 H   0  0  0  0  0  0  0  0  0  0  0  0
  -21.5847   65.4780   69.1493 C   0  0  0  0  0  0  0  0  0  0  0  0
  -22.9143   65.2773   69.8709 C   0  0  0  0  0  0  0  0  0  0  0  0
  -22.9998   65.4580   71.0865 O   0  0  0  0  0  0  0  0  0  0  0  0
  -21.1025   66.9190   69.3313 C   0  0  0  0  0  0  0  0  0  0  0  0
  -22.1350   67.9665   68.9479 C   0  0  0  0  0  0  0  0  0  0  0  0
  -22.3350   68.9927   70.0543 C   0  0  0  0  0  0  0  0  0  0  0  0
  -23.7096   69.4847   70.0909 N   0  0  0  0  0  0  0  0  0  0  0  0
  -24.3742   68.1105   71.8253 N   0  0  0  0  0  0  0  0  0  0  0  0
  -25.8656   69.5707   70.8770 N   0  0  0  0  0  0  0  0  0  0  0  0
  -24.6472   69.0539   70.9306 C   0  0  0  0  0  0  0  0  0  0  0  0
  -25.0757   67.7991   72.4419 H   0  0  0  0  0  0  0  0  0  0  0  0
  -23.4705   67.7228   71.8717 H   0  0  0  0  0  0  0  0  0  0  0  0
  -26.5621   69.2545   71.4967 H   0  0  0  0  0  0  0  0  0  0  0  0
  -26.0747   70.2710   70.2174 H   0  0  0  0  0  0  0  0  0  0  0  0
  -19.6982   63.4654   65.0682 C   0  0  0  0  0  0  0  0  0  0  0  0
  -19.3308   62.3701   65.8897 O   0  0  0  0  0  0  0  0  0  0  0  0
  -20.0486   61.7178   65.8989 H   0  0  0  0  0  0  0  0  0  0  0  0
  -26.4867   67.4489   63.9640 C   0  0  0  0  0  0  0  0  0  0  0  0
  -27.8461   67.9649   64.4378 C   0  0  0  0  0  0  0  0  0  0  0  0
  -28.3903   67.0780   65.5535 C   0  0  0  0  0  0  0  0  0  0  0  0
  -27.7377   69.4123   64.9044 C   0  0  0  0  0  0  0  0  0  0  0  0
  -30.7883   65.1764   61.7418 C   0  0  0  0  0  0  0  0  0  0  0  0
  -31.8140   64.2448   61.0877 C   0  0  0  0  0  0  0  0  0  0  0  0
  -31.0672   65.3323   63.2408 C   0  0  0  0  0  0  0  0  0  0  0  0
  -31.4342   66.7499   63.6584 C   0  0  0  0  0  0  0  0  0  0  0  0
  -27.4100   60.3672   62.5798 C   0  0  0  0  0  0  0  0  0  0  0  0
  -27.0708   59.2816   63.5908 C   0  0  0  0  0  0  0  0  0  0  0  0
  -25.7477   59.5167   64.3027 C   0  0  0  0  0  0  0  0  0  0  0  0
  -25.6413   59.1950   65.5070 O   0  0  0  0  0  0  0  0  0  0  0  0
  -24.8102   60.0277   63.6494 O   0  0  0  0  0  0  0  0  0  0  0  0
  -26.3704   58.8150   65.9565 H   0  0  0  0  0  0  0  0  0  0  0  0
  -31.2746   59.1218   64.7720 C   0  0  0  0  0  0  0  0  0  0  0  0
  -31.1118   58.0291   65.8335 C   0  0  0  0  0  0  0  0  0  0  0  0
  -32.6184   58.9852   64.0465 C   0  0  0  0  0  0  0  0  0  0  0  0
  -32.5059   58.9980   62.5279 C   0  0  0  0  0  0  0  0  0  0  0  0
  -36.2328   62.0793   64.9209 C   0  0  0  0  0  0  0  0  0  0  0  0
  -35.9987   62.6304   63.8435 O   0  0  0  0  0  0  0  0  0  0  0  0
  -35.3319   61.9461   65.8293 N   0  0  0  0  0  0  0  0  0  0  0  0
  -35.4169   61.2855   66.5543 H   0  0  0  0  0  0  0  0  0  0  0  0
  -37.4679   61.1975   65.0880 C   0  0  0  0  0  0  0  0  0  0  0  0
  -37.0802   59.7224   64.8772 C   0  0  0  0  0  0  0  0  0  0  0  0
  -36.2648   59.5440   63.6009 C   0  0  0  0  0  0  0  0  0  0  0  0
  -36.3025   59.2743   65.9950 O   0  0  0  0  0  0  0  0  0  0  0  0
  -35.4931   59.8050   66.0593 H   0  0  0  0  0  0  0  0  0  0  0  0
  -39.8401   61.3152   64.5217 C   0  0  0  0  0  0  0  0  0  0  0  0
  -40.1739   60.9486   65.6502 O   0  0  0  0  0  0  0  0  0  0  0  0
  -38.5224   61.6052   64.1671 N   0  0  0  0  0  0  0  0  0  0  0  0
  -38.3119   62.0690   63.3246 H   0  0  0  0  0  0  0  0  0  0  0  0
  -40.8975   61.6811   63.4819 C   0  0  0  0  0  0  0  0  0  0  0  0
  -43.2158   60.9728   63.1836 C   0  0  0  0  0  0  0  0  0  0  0  0
  -42.9816   60.7446   61.9953 O   0  0  0  0  0  0  0  0  0  0  0  0
  -42.2399   61.3848   63.9724 N   0  0  0  0  0  0  0  0  0  0  0  0
  -42.4259   61.4969   64.9327 H   0  0  0  0  0  0  0  0  0  0  0  0
  -44.5993   60.6980   63.7671 C   0  0  0  0  0  0  0  0  0  0  0  0
  -46.7660   61.5897   63.1536 C   0  0  0  0  0  0  0  0  0  0  0  0
  -46.9017   62.0668   64.2821 O   0  0  0  0  0  0  0  0  0  0  0  0
  -45.6468   60.9419   62.7797 N   0  0  0  0  0  0  0  0  0  0  0  0
  -45.5358   60.6359   61.8506 H   0  0  0  0  0  0  0  0  0  0  0  0
  -47.8498   61.7789   62.0948 C   0  0  0  0  0  0  0  0  0  0  0  0
  -49.9225   62.4402   62.8336 C   0  0  0  0  0  0  0  0  0  0  0  0
  -50.0277   61.2661   63.1928 O   0  0  0  0  0  0  0  0  0  0  0  0
  -48.7601   62.8592   62.4623 N   0  0  0  0  0  0  0  0  0  0  0  0
  -48.5120   63.8114   62.4300 H   0  0  0  0  0  0  0  0  0  0  0  0
  -50.9575   63.4773   63.2609 C   0  0  0  0  0  0  0  0  0  0  0  0
  -49.9327   65.1973   64.3696 C   0  0  0  0  0  0  0  0  0  0  0  0
  -49.6996   64.2001   65.0562 O   0  0  0  0  0  0  0  0  0  0  0  0
  -50.4111   64.8258   63.1598 N   0  0  0  0  0  0  0  0  0  0  0  0
  -50.3933   65.3763   62.3438 H   0  0  0  0  0  0  0  0  0  0  0  0
  -49.1655   66.4866   64.5977 C   0  0  0  0  0  0  0  0  0  0  0  0
  -47.1433   66.1081   65.7041 C   0  0  0  0  0  0  0  0  0  0  0  0
  -46.7466   66.0561   64.5370 O   0  0  0  0  0  0  0  0  0  0  0  0
  -48.4094   66.4896   65.8392 N   0  0  0  0  0  0  0  0  0  0  0  0
  -48.8006   66.7513   66.7040 H   0  0  0  0  0  0  0  0  0  0  0  0
  -46.1977   65.7841   66.8563 C   0  0  0  0  0  0  0  0  0  0  0  0
  -46.8526   66.9763   69.0566 C   0  0  0  0  0  0  0  0  0  0  0  0
  -46.3417   68.0925   68.9434 O   0  0  0  0  0  0  0  0  0  0  0  0
  -46.8335   66.0532   68.1410 N   0  0  0  0  0  0  0  0  0  0  0  0
  -47.4291   65.3102   68.3909 H   0  0  0  0  0  0  0  0  0  0  0  0
  -46.8904   66.7753   71.5283 N   0  0  0  0  0  0  0  0  0  0  0  0
  -47.6475   66.6155   70.2972 C   0  0  0  0  0  0  0  0  0  0  0  0
  -47.4758   66.5186   72.3232 H   0  0  0  0  0  0  0  0  0  0  0  0
  -46.5961   67.7473   71.6227 H   0  0  0  0  0  0  0  0  0  0  0  0
  -45.7561   64.3201   66.7725 C   0  0  0  0  0  0  0  0  0  0  0  0
  -44.4619   63.9601   67.5045 C   0  0  0  0  0  0  0  0  0  0  0  0
  -43.8348   62.7134   66.8893 C   0  0  0  0  0  0  0  0  0  0  0  0
  -43.4842   65.1298   67.4699 C   0  0  0  0  0  0  0  0  0  0  0  0
  -52.2272   63.3234   62.4028 C   0  0  0  0  0  0  0  0  0  0  0  0
  -51.9822   63.7864   60.9702 C   0  0  0  0  0  0  0  0  0  0  0  0
  -52.6222   61.9463   62.3872 O   0  0  0  0  0  0  0  0  0  0  0  0
  -51.9134   61.4110   61.9976 H   0  0  0  0  0  0  0  0  0  0  0  0
  -47.2114   62.0537   60.7320 C   0  0  0  0  0  0  0  0  0  0  0  0
  -46.9889   60.7929   59.9164 C   0  0  0  0  0  0  0  0  0  0  0  0
  -47.9633   60.0554   59.6545 O   0  0  0  0  0  0  0  0  0  0  0  0
  -45.8270   60.5320   59.5347 O   0  0  0  0  0  0  0  0  0  0  0  0
  -48.8195   60.2847   59.9584 H   0  0  0  0  0  0  0  0  0  0  0  0
  -44.6748   59.2596   64.2866 C   0  0  0  0  0  0  0  0  0  0  0  0
  -45.7960   59.0259   65.2871 C   0  0  0  0  0  0  0  0  0  0  0  0
  -46.9128   58.1473   64.7446 C   0  0  0  0  0  0  0  0  0  0  0  0
  -47.3746   57.2369   65.4679 O   0  0  0  0  0  0  0  0  0  0  0  0
  -47.3279   58.3729   63.5856 O   0  0  0  0  0  0  0  0  0  0  0  0
  -46.9518   59.0662   63.0799 H   0  0  0  0  0  0  0  0  0  0  0  0
  -40.7773   63.1595   63.1073 C   0  0  0  0  0  0  0  0  0  0  0  0
  -40.1565   63.3763   61.7382 C   0  0  0  0  0  0  0  0  0  0  0  0
  -40.9033   63.5442   60.7504 O   0  0  0  0  0  0  0  0  0  0  0  0
  -38.9097   63.3770   61.6467 O   0  0  0  0  0  0  0  0  0  0  0  0
  -38.3838   63.2476   62.4114 H   0  0  0  0  0  0  0  0  0  0  0  0
  -34.3313   64.0283   66.6636 C   0  0  0  0  0  0  0  0  0  0  0  0
  -33.6308   65.3200   66.2373 C   0  0  0  0  0  0  0  0  0  0  0  0
  -34.6203   66.2621   65.5602 C   0  0  0  0  0  0  0  0  0  0  0  0
  -32.9764   65.9956   67.4377 C   0  0  0  0  0  0  0  0  0  0  0  0
130128  2  0  0  0
128129  1  0  0  0
128127  1  0  0  0
127 95  1  0  0  0
122120  1  0  0  0
115116  1  0  0  0
135134  2  0  0  0
145144  1  0  0  0
120121  1  0  0  0
120119  1  0  0  0
116111  1  0  0  0
 95 98  1  0  0  0
 95 91  1  0  0  0
146144  1  0  0  0
111113  1  0  0  0
111112  2  0  0  0
113110  1  0  0  0
134133  1  0  0  0
134136  1  0  0  0
110119  1  0  0  0
110106  1  0  0  0
 98 96  1  0  0  0
125123  1  0  0  0
144143  1  0  0  0
133132  1  0  0  0
 91 92  2  0  0  0
 91 93  1  0  0  0
 93 90  1  0  0  0
123100  1  0  0  0
123124  1  0  0  0
 96 97  2  0  0  0
 96100  1  0  0  0
106108  1  0  0  0
106107  2  0  0  0
103100  1  0  0  0
103101  1  0  0  0
108105  1  0  0  0
 90132  1  0  0  0
 90 86  1  0  0  0
143  1  1  0  0  0
101105  1  0  0  0
101102  2  0  0  0
 78 77  1  0  0  0
 77 79  1  0  0  0
 77 76  1  0  0  0
 61 60  1  0  0  0
  1 74  1  0  0  0
  1  2  1  0  0  0
 86 87  2  0  0  0
 86 88  1  0  0  0
 74 72  1  0  0  0
 72 76  1  0  0  0
 72 73  2  0  0  0
 88 85  1  0  0  0
 76 83  1  0  0  0
 83 81  1  0  0  0
  2  3  2  0  0  0
  2  4  1  0  0  0
 60 58  1  0  0  0
 44 46  1  0  0  0
 59 58  1  0  0  0
 56 55  1  0  0  0
 57 55  1  0  0  0
 58 16  1  0  0  0
 55 54  1  0  0  0
 81 85  1  0  0  0
 81 82  2  0  0  0
 85138  1  0  0  0
  4  6  1  0  0  0
 45 46  1  0  0  0
 46 43  2  0  0  0
138139  1  0  0  0
 70 71  1  0  0  0
 70 68  1  0  0  0
139140  2  0  0  0
139141  1  0  0  0
 16 14  1  0  0  0
 16 17  1  0  0  0
  6 68  1  0  0  0
  6  7  1  0  0  0
 43 42  1  0  0  0
 14 12  1  0  0  0
 42 41  1  0  0  0
 54 21  1  0  0  0
 19 17  1  0  0  0
 19 21  1  0  0  0
 17 18  2  0  0  0
  9  7  1  0  0  0
  9 11  1  0  0  0
 68 69  1  0  0  0
 21 22  1  0  0  0
  7  8  2  0  0  0
 66 64  2  0  0  0
 62 11  1  0  0  0
 62 63  1  0  0  0
 12 11  1  0  0  0
 12 13  2  0  0  0
 41 40  1  0  0  0
 64 63  1  0  0  0
 64 65  1  0  0  0
 22 23  2  0  0  0
 22 24  1  0  0  0
 40 37  1  0  0  0
 24 26  1  0  0  0
 37 35  1  0  0  0
 37 38  1  0  0  0
 35 33  1  0  0  0
 30 32  1  0  0  0
 30 28  1  0  0  0
 51 52  1  0  0  0
 51 32  1  0  0  0
 26 27  1  0  0  0
 26 28  1  0  0  0
 33 32  1  0  0  0
 33 34  2  0  0  0
 38 39  2  0  0  0
 28 29  2  0  0  0
115117  1  0  0  0
115118  1  0  0  0
113114  1  0  0  0
108109  1  0  0  0
103104  1  0  0  0
125126  1  0  0  0
 98 99  1  0  0  0
129131  1  0  0  0
 93 94  1  0  0  0
136137  1  0  0  0
 88 89  1  0  0  0
141142  1  0  0  0
 83 84  1  0  0  0
 79 80  1  0  0  0
 74 75  1  0  0  0
  4  5  1  0  0  0
  9 10  1  0  0  0
 65 67  1  0  0  0
 14 15  1  0  0  0
 19 20  1  0  0  0
 24 25  1  0  0  0
 30 31  1  0  0  0
 52 53  1  0  0  0
 35 36  1  0  0  0
 44 47  1  0  0  0
 44 48  1  0  0  0
 45 49  1  0  0  0
 45 50  1  0  0  0
M  END
> <MODEL>
    1                                                                     

> <minimizedAffinity>
-9.24328

> <CNNscore>
0.1040346846

> <CNNaffinity>
6.3817996979

> <CNN_VS>
0.6639285088

> <CNNaffinity_variance>
1.7479782104

$$$$



146145  0  0  0  0  0  0  0  0999 V2000
  -34.1721   60.2156   64.5597 C   0  0  0  0  0  0  0  0  0  0  0  0
  -33.9680   61.7230   64.6687 C   0  0  0  0  0  0  0  0  0  0  0  0
  -34.7462   62.5011   64.1127 O   0  0  0  0  0  0  0  0  0  0  0  0
  -32.8824   62.2012   65.1248 N   0  0  0  0  0  0  0  0  0  0  0  0
  -32.1675   61.5668   65.3610 H   0  0  0  0  0  0  0  0  0  0  0  0
  -32.6189   63.6222   65.3235 C   0  0  0  0  0  0  0  0  0  0  0  0
  -31.5931   64.1043   64.2995 C   0  0  0  0  0  0  0  0  0  0  0  0
  -30.4530   64.4132   64.6532 O   0  0  0  0  0  0  0  0  0  0  0  0
  -32.0893   64.3764   63.1372 N   0  0  0  0  0  0  0  0  0  0  0  0
  -33.0571   64.3209   62.9652 H   0  0  0  0  0  0  0  0  0  0  0  0
  -31.1500   64.7695   62.0915 C   0  0  0  0  0  0  0  0  0  0  0  0
  -31.4673   66.1636   61.5604 C   0  0  0  0  0  0  0  0  0  0  0  0
  -30.9657   67.1615   62.0814 O   0  0  0  0  0  0  0  0  0  0  0  0
  -32.3589   66.1327   60.5531 N   0  0  0  0  0  0  0  0  0  0  0  0
  -32.7718   65.2989   60.2314 H   0  0  0  0  0  0  0  0  0  0  0  0
  -32.6620   67.4379   59.9781 C   0  0  0  0  0  0  0  0  0  0  0  0
  -34.0365   67.9037   60.4531 C   0  0  0  0  0  0  0  0  0  0  0  0
  -34.1595   68.9609   61.0775 O   0  0  0  0  0  0  0  0  0  0  0  0
  -35.0301   67.0773   60.1994 N   0  0  0  0  0  0  0  0  0  0  0  0
  -34.8609   66.2213   59.7434 H   0  0  0  0  0  0  0  0  0  0  0  0
  -36.3842   67.4434   60.6009 C   0  0  0  0  0  0  0  0  0  0  0  0
  -36.7048   66.8999   61.9887 C   0  0  0  0  0  0  0  0  0  0  0  0
  -37.4102   65.8975   62.1196 O   0  0  0  0  0  0  0  0  0  0  0  0
  -36.2262   67.4912   63.0551 N   0  0  0  0  0  0  0  0  0  0  0  0
  -35.6851   68.3049   62.9355 H   0  0  0  0  0  0  0  0  0  0  0  0
  -36.4550   67.0036   64.4126 C   0  0  0  0  0  0  0  0  0  0  0  0
  -35.3161   66.0825   64.8464 C   0  0  0  0  0  0  0  0  0  0  0  0
  -36.6001   68.1629   65.3951 C   0  0  0  0  0  0  0  0  0  0  0  0
  -35.7193   69.0205   65.4861 O   0  0  0  0  0  0  0  0  0  0  0  0
  -37.7030   68.1098   66.2151 N   0  0  0  0  0  0  0  0  0  0  0  0
  -38.3409   67.3612   66.1701 H   0  0  0  0  0  0  0  0  0  0  0  0
  -37.8867   69.2112   67.1549 C   0  0  0  0  0  0  0  0  0  0  0  0
  -38.5183   70.4202   66.4736 C   0  0  0  0  0  0  0  0  0  0  0  0
  -38.2424   71.5629   66.8441 O   0  0  0  0  0  0  0  0  0  0  0  0
  -39.4386   70.2583   65.5445 N   0  0  0  0  0  0  0  0  0  0  0  0
  -39.6163   69.3478   65.2147 H   0  0  0  0  0  0  0  0  0  0  0  0
  -40.2071   71.3637   64.9808 C   0  0  0  0  0  0  0  0  0  0  0  0
  -41.6357   71.3677   65.5175 C   0  0  0  0  0  0  0  0  0  0  0  0
  -42.0277   72.2806   66.2460 O   0  0  0  0  0  0  0  0  0  0  0  0
  -40.2222   71.2843   63.4526 C   0  0  0  0  0  0  0  0  0  0  0  0
  -39.3803   72.3517   62.7725 C   0  0  0  0  0  0  0  0  0  0  0  0
  -38.0368   71.8028   62.3135 C   0  0  0  0  0  0  0  0  0  0  0  0
  -37.1781   71.4640   63.4453 N   0  0  0  0  0  0  0  0  0  0  0  0
  -36.1247   73.5188   63.5271 N   0  0  0  0  0  0  0  0  0  0  0  0
  -35.5597   71.8749   65.0219 N   0  0  0  0  0  0  0  0  0  0  0  0
  -36.2889   72.2864   63.9955 C   0  0  0  0  0  0  0  0  0  0  0  0
  -35.4637   74.1190   63.9419 H   0  0  0  0  0  0  0  0  0  0  0  0
  -36.6641   73.8318   62.7653 H   0  0  0  0  0  0  0  0  0  0  0  0
  -34.9006   72.4807   65.4317 H   0  0  0  0  0  0  0  0  0  0  0  0
  -35.6768   70.9634   65.3750 H   0  0  0  0  0  0  0  0  0  0  0  0
  -36.5502   69.6092   67.7818 C   0  0  0  0  0  0  0  0  0  0  0  0
  -36.5990   69.4812   69.1927 O   0  0  0  0  0  0  0  0  0  0  0  0
  -36.7833   68.5583   69.4275 H   0  0  0  0  0  0  0  0  0  0  0  0
  -37.4040   66.9201   59.5861 C   0  0  0  0  0  0  0  0  0  0  0  0
  -37.9362   67.9364   58.5749 C   0  0  0  0  0  0  0  0  0  0  0  0
  -37.8988   69.3422   59.1665 C   0  0  0  0  0  0  0  0  0  0  0  0
  -37.1341   67.8753   57.2799 C   0  0  0  0  0  0  0  0  0  0  0  0
  -32.6124   67.4009   58.4343 C   0  0  0  0  0  0  0  0  0  0  0  0
  -32.8556   68.7973   57.8523 C   0  0  0  0  0  0  0  0  0  0  0  0
  -31.2710   66.8340   57.9562 C   0  0  0  0  0  0  0  0  0  0  0  0
  -30.0738   67.7163   58.2831 C   0  0  0  0  0  0  0  0  0  0  0  0
  -31.1643   63.7537   60.9462 C   0  0  0  0  0  0  0  0  0  0  0  0
  -30.0864   62.6853   61.0580 C   0  0  0  0  0  0  0  0  0  0  0  0
  -28.8828   63.1303   61.8739 C   0  0  0  0  0  0  0  0  0  0  0  0
  -28.6714   62.5947   62.9847 O   0  0  0  0  0  0  0  0  0  0  0  0
  -28.1456   64.0227   61.3975 O   0  0  0  0  0  0  0  0  0  0  0  0
  -29.2505   61.9298   63.3019 H   0  0  0  0  0  0  0  0  0  0  0  0
  -32.1200   63.9087   66.7575 C   0  0  0  0  0  0  0  0  0  0  0  0
  -33.2145   64.5917   67.5839 C   0  0  0  0  0  0  0  0  0  0  0  0
  -31.6543   62.6119   67.4298 C   0  0  0  0  0  0  0  0  0  0  0  0
  -30.1449   62.4116   67.4095 C   0  0  0  0  0  0  0  0  0  0  0  0
  -36.4576   59.7712   64.6614 C   0  0  0  0  0  0  0  0  0  0  0  0
  -36.4795   60.2174   65.8102 O   0  0  0  0  0  0  0  0  0  0  0  0
  -35.4333   59.9081   63.8956 N   0  0  0  0  0  0  0  0  0  0  0  0
  -35.4970   59.8108   62.9180 H   0  0  0  0  0  0  0  0  0  0  0  0
  -37.7543   59.3779   63.9581 C   0  0  0  0  0  0  0  0  0  0  0  0
  -37.4302   58.7771   62.5780 C   0  0  0  0  0  0  0  0  0  0  0  0
  -38.5545   57.8666   62.0957 C   0  0  0  0  0  0  0  0  0  0  0  0
  -37.2500   59.8386   61.6315 O   0  0  0  0  0  0  0  0  0  0  0  0
  -38.0688   60.3544   61.5644 H   0  0  0  0  0  0  0  0  0  0  0  0
  -39.9070   60.4285   64.4313 C   0  0  0  0  0  0  0  0  0  0  0  0
  -40.2171   59.5393   65.2266 O   0  0  0  0  0  0  0  0  0  0  0  0
  -38.6470   60.5249   63.8405 N   0  0  0  0  0  0  0  0  0  0  0  0
  -38.3701   61.3389   63.3610 H   0  0  0  0  0  0  0  0  0  0  0  0
  -40.8350   61.6197   64.2012 C   0  0  0  0  0  0  0  0  0  0  0  0
  -43.2122   61.1167   64.4485 C   0  0  0  0  0  0  0  0  0  0  0  0
  -43.2544   60.7858   63.2620 O   0  0  0  0  0  0  0  0  0  0  0  0
  -42.0617   61.4872   64.9810 N   0  0  0  0  0  0  0  0  0  0  0  0
  -42.0302   61.6823   65.9454 H   0  0  0  0  0  0  0  0  0  0  0  0
  -44.4575   61.0157   65.3255 C   0  0  0  0  0  0  0  0  0  0  0  0
  -44.4986   63.0722   66.6044 C   0  0  0  0  0  0  0  0  0  0  0  0
  -43.5067   62.7099   67.2402 O   0  0  0  0  0  0  0  0  0  0  0  0
  -45.0161   62.3358   65.6033 N   0  0  0  0  0  0  0  0  0  0  0  0
  -45.7630   62.6835   65.0645 H   0  0  0  0  0  0  0  0  0  0  0  0
  -45.1483   64.4256   66.8833 C   0  0  0  0  0  0  0  0  0  0  0  0
  -43.7672   66.2318   67.2137 C   0  0  0  0  0  0  0  0  0  0  0  0
  -43.6132   65.7465   68.3360 O   0  0  0  0  0  0  0  0  0  0  0  0
  -44.3572   65.5143   66.3183 N   0  0  0  0  0  0  0  0  0  0  0  0
  -44.2813   65.6840   65.3515 H   0  0  0  0  0  0  0  0  0  0  0  0
  -42.8935   67.3918   66.7442 C   0  0  0  0  0  0  0  0  0  0  0  0
  -41.5357   67.6863   64.9256 C   0  0  0  0  0  0  0  0  0  0  0  0
  -40.7670   67.4012   65.8464 O   0  0  0  0  0  0  0  0  0  0  0  0
  -42.8121   67.4220   65.2883 N   0  0  0  0  0  0  0  0  0  0  0  0
  -43.5638   67.2742   64.6699 H   0  0  0  0  0  0  0  0  0  0  0  0
  -41.0590   67.6524   63.4853 C   0  0  0  0  0  0  0  0  0  0  0  0
  -41.7646   67.7454   61.2603 C   0  0  0  0  0  0  0  0  0  0  0  0
  -40.5471   67.6570   61.0815 O   0  0  0  0  0  0  0  0  0  0  0  0
  -42.1482   67.5957   62.5241 N   0  0  0  0  0  0  0  0  0  0  0  0
  -43.0872   67.4586   62.7862 H   0  0  0  0  0  0  0  0  0  0  0  0
  -42.7040   67.9724   60.0802 C   0  0  0  0  0  0  0  0  0  0  0  0
  -45.0712   67.9473   61.1230 C   0  0  0  0  0  0  0  0  0  0  0  0
  -45.1508   66.8271   61.6316 O   0  0  0  0  0  0  0  0  0  0  0  0
  -44.0127   68.4250   60.5379 N   0  0  0  0  0  0  0  0  0  0  0  0
  -44.1305   69.3833   60.3455 H   0  0  0  0  0  0  0  0  0  0  0  0
  -45.8141   70.2684   61.5830 N   0  0  0  0  0  0  0  0  0  0  0  0
  -46.2290   68.9222   61.2223 C   0  0  0  0  0  0  0  0  0  0  0  0
  -46.6329   70.8745   61.6337 H   0  0  0  0  0  0  0  0  0  0  0  0
  -45.1696   70.6260   60.8778 H   0  0  0  0  0  0  0  0  0  0  0  0
  -42.0915   68.9913   59.1146 C   0  0  0  0  0  0  0  0  0  0  0  0
  -42.1284   68.6245   57.6299 C   0  0  0  0  0  0  0  0  0  0  0  0
  -43.4734   69.0094   57.0226 C   0  0  0  0  0  0  0  0  0  0  0  0
  -40.9846   69.3016   56.8827 C   0  0  0  0  0  0  0  0  0  0  0  0
  -43.4507   68.7157   67.3001 C   0  0  0  0  0  0  0  0  0  0  0  0
  -44.9553   68.8182   67.0712 C   0  0  0  0  0  0  0  0  0  0  0  0
  -43.1867   68.7853   68.7065 O   0  0  0  0  0  0  0  0  0  0  0  0
  -43.6270   68.0466   69.1551 H   0  0  0  0  0  0  0  0  0  0  0  0
  -46.5727   64.4501   66.3256 C   0  0  0  0  0  0  0  0  0  0  0  0
  -46.6907   65.2408   65.0351 C   0  0  0  0  0  0  0  0  0  0  0  0
  -47.2001   66.3817   65.0628 O   0  0  0  0  0  0  0  0  0  0  0  0
  -46.2736   64.7165   63.9792 O   0  0  0  0  0  0  0  0  0  0  0  0
  -47.5013   66.7408   65.8741 H   0  0  0  0  0  0  0  0  0  0  0  0
  -45.5025   60.1203   64.6542 C   0  0  0  0  0  0  0  0  0  0  0  0
  -46.7339   60.8701   64.1700 C   0  0  0  0  0  0  0  0  0  0  0  0
  -47.9428   59.9706   63.9627 C   0  0  0  0  0  0  0  0  0  0  0  0
  -49.0888   60.4506   64.1098 O   0  0  0  0  0  0  0  0  0  0  0  0
  -47.7399   58.7757   63.6507 O   0  0  0  0  0  0  0  0  0  0  0  0
  -46.8634   58.4598   63.5513 H   0  0  0  0  0  0  0  0  0  0  0  0
  -40.1147   62.9230   64.5516 C   0  0  0  0  0  0  0  0  0  0  0  0
  -41.0288   63.9523   65.1934 C   0  0  0  0  0  0  0  0  0  0  0  0
  -41.9685   64.4335   64.5248 O   0  0  0  0  0  0  0  0  0  0  0  0
  -40.8057   64.2861   66.3773 O   0  0  0  0  0  0  0  0  0  0  0  0
  -40.0906   63.9022   66.8455 H   0  0  0  0  0  0  0  0  0  0  0  0
  -33.0002   59.5842   63.8033 C   0  0  0  0  0  0  0  0  0  0  0  0
  -32.0607   58.6991   64.6248 C   0  0  0  0  0  0  0  0  0  0  0  0
  -30.6934   59.3600   64.7621 C   0  0  0  0  0  0  0  0  0  0  0  0
  -32.6610   58.4092   65.9964 C   0  0  0  0  0  0  0  0  0  0  0  0
130128  2  0  0  0
128129  1  0  0  0
128127  1  0  0  0
127 95  1  0  0  0
122120  1  0  0  0
115116  1  0  0  0
135134  2  0  0  0
145144  1  0  0  0
120121  1  0  0  0
120119  1  0  0  0
116111  1  0  0  0
 95 98  1  0  0  0
 95 91  1  0  0  0
146144  1  0  0  0
111113  1  0  0  0
111112  2  0  0  0
113110  1  0  0  0
134133  1  0  0  0
134136  1  0  0  0
110119  1  0  0  0
110106  1  0  0  0
 98 96  1  0  0  0
125123  1  0  0  0
144143  1  0  0  0
133132  1  0  0  0
 91 92  2  0  0  0
 91 93  1  0  0  0
 93 90  1  0  0  0
123100  1  0  0  0
123124  1  0  0  0
 96 97  2  0  0  0
 96100  1  0  0  0
106108  1  0  0  0
106107  2  0  0  0
103100  1  0  0  0
103101  1  0  0  0
108105  1  0  0  0
 90132  1  0  0  0
 90 86  1  0  0  0
143  1  1  0  0  0
101105  1  0  0  0
101102  2  0  0  0
 78 77  1  0  0  0
 77 79  1  0  0  0
 77 76  1  0  0  0
 61 60  1  0  0  0
  1 74  1  0  0  0
  1  2  1  0  0  0
 86 87  2  0  0  0
 86 88  1  0  0  0
 74 72  1  0  0  0
 72 76  1  0  0  0
 72 73  2  0  0  0
 88 85  1  0  0  0
 76 83  1  0  0  0
 83 81  1  0  0  0
  2  3  2  0  0  0
  2  4  1  0  0  0
 60 58  1  0  0  0
 44 46  1  0  0  0
 59 58  1  0  0  0
 56 55  1  0  0  0
 57 55  1  0  0  0
 58 16  1  0  0  0
 55 54  1  0  0  0
 81 85  1  0  0  0
 81 82  2  0  0  0
 85138  1  0  0  0
  4  6  1  0  0  0
 45 46  1  0  0  0
 46 43  2  0  0  0
138139  1  0  0  0
 70 71  1  0  0  0
 70 68  1  0  0  0
139140  2  0  0  0
139141  1  0  0  0
 16 14  1  0  0  0
 16 17  1  0  0  0
  6 68  1  0  0  0
  6  7  1  0  0  0
 43 42  1  0  0  0
 14 12  1  0  0  0
 42 41  1  0  0  0
 54 21  1  0  0  0
 19 17  1  0  0  0
 19 21  1  0  0  0
 17 18  2  0  0  0
  9  7  1  0  0  0
  9 11  1  0  0  0
 68 69  1  0  0  0
 21 22  1  0  0  0
  7  8  2  0  0  0
 66 64  2  0  0  0
 62 11  1  0  0  0
 62 63  1  0  0  0
 12 11  1  0  0  0
 12 13  2  0  0  0
 41 40  1  0  0  0
 64 63  1  0  0  0
 64 65  1  0  0  0
 22 23  2  0  0  0
 22 24  1  0  0  0
 40 37  1  0  0  0
 24 26  1  0  0  0
 37 35  1  0  0  0
 37 38  1  0  0  0
 35 33  1  0  0  0
 30 32  1  0  0  0
 30 28  1  0  0  0
 51 52  1  0  0  0
 51 32  1  0  0  0
 26 27  1  0  0  0
 26 28  1  0  0  0
 33 32  1  0  0  0
 33 34  2  0  0  0
 38 39  2  0  0  0
 28 29  2  0  0  0
115117  1  0  0  0
115118  1  0  0  0
113114  1  0  0  0
108109  1  0  0  0
103104  1  0  0  0
125126  1  0  0  0
 98 99  1  0  0  0
129131  1  0  0  0
 93 94  1  0  0  0
136137  1  0  0  0
 88 89  1  0  0  0
141142  1  0  0  0
 83 84  1  0  0  0
 79 80  1  0  0  0
 74 75  1  0  0  0
  4  5  1  0  0  0
  9 10  1  0  0  0
 65 67  1  0  0  0
 14 15  1  0  0  0
 19 20  1  0  0  0
 24 25  1  0  0  0
 30 31  1  0  0  0
 52 53  1  0  0  0
 35 36  1  0  0  0
 44 47  1  0  0  0
 44 48  1  0  0  0
 45 49  1  0  0  0
 45 50  1  0  0  0
M  END
> <MODEL>
    1                                                                     

> <minimizedAffinity>
-7.38362

> <CNNscore>
0.0816070512

> <CNNaffinity>
7.2877120972

> <CNN_VS>
0.5947287083

> <CNNaffinity_variance>
5.4211349487

$$$$



146145  0  0  0  0  0  0  0  0999 V2000
  -33.2663   60.4435   64.4893 C   0  0  0  0  0  0  0  0  0  0  0  0
  -32.1892   61.0821   63.6188 C   0  0  0  0  0  0  0  0  0  0  0  0
  -31.4842   60.3859   62.8851 O   0  0  0  0  0  0  0  0  0  0  0  0
  -31.8382   62.2902   63.7996 N   0  0  0  0  0  0  0  0  0  0  0  0
  -32.2536   62.7795   64.5461 H   0  0  0  0  0  0  0  0  0  0  0  0
  -30.8645   63.0042   62.9809 C   0  0  0  0  0  0  0  0  0  0  0  0
  -29.5691   63.1930   63.7680 C   0  0  0  0  0  0  0  0  0  0  0  0
  -29.5758   63.7776   64.8536 O   0  0  0  0  0  0  0  0  0  0  0  0
  -28.4967   62.9155   63.1016 N   0  0  0  0  0  0  0  0  0  0  0  0
  -28.5332   62.6572   62.1523 H   0  0  0  0  0  0  0  0  0  0  0  0
  -27.2292   63.0024   63.8203 C   0  0  0  0  0  0  0  0  0  0  0  0
  -26.4791   64.2815   63.4634 C   0  0  0  0  0  0  0  0  0  0  0  0
  -25.6726   64.2954   62.5316 O   0  0  0  0  0  0  0  0  0  0  0  0
  -26.7715   65.2926   64.3017 N   0  0  0  0  0  0  0  0  0  0  0  0
  -27.3779   65.1900   65.0705 H   0  0  0  0  0  0  0  0  0  0  0  0
  -26.1148   66.5530   63.9757 C   0  0  0  0  0  0  0  0  0  0  0  0
  -25.2289   66.9889   65.1406 C   0  0  0  0  0  0  0  0  0  0  0  0
  -24.8034   68.1452   65.2068 O   0  0  0  0  0  0  0  0  0  0  0  0
  -24.9224   66.0400   66.0010 N   0  0  0  0  0  0  0  0  0  0  0  0
  -25.2494   65.1214   65.8656 H   0  0  0  0  0  0  0  0  0  0  0  0
  -24.0932   66.3643   67.1569 C   0  0  0  0  0  0  0  0  0  0  0  0
  -22.6127   66.2355   66.8166 C   0  0  0  0  0  0  0  0  0  0  0  0
  -21.8146   67.1106   67.1581 O   0  0  0  0  0  0  0  0  0  0  0  0
  -22.1751   65.1878   66.1633 N   0  0  0  0  0  0  0  0  0  0  0  0
  -22.8282   64.5097   65.8756 H   0  0  0  0  0  0  0  0  0  0  0  0
  -20.7668   64.9755   65.8402 C   0  0  0  0  0  0  0  0  0  0  0  0
  -20.2535   63.7015   66.5090 C   0  0  0  0  0  0  0  0  0  0  0  0
  -20.5549   64.9016   64.3302 C   0  0  0  0  0  0  0  0  0  0  0  0
  -19.7574   64.0943   63.8486 O   0  0  0  0  0  0  0  0  0  0  0  0
  -21.2225   65.8503   63.5914 N   0  0  0  0  0  0  0  0  0  0  0  0
  -21.7852   66.5340   64.0217 H   0  0  0  0  0  0  0  0  0  0  0  0
  -21.0604   65.7996   62.1418 C   0  0  0  0  0  0  0  0  0  0  0  0
  -20.2376   66.9791   61.6355 C   0  0  0  0  0  0  0  0  0  0  0  0
  -19.5004   66.8538   60.6557 O   0  0  0  0  0  0  0  0  0  0  0  0
  -20.2302   68.1202   62.2944 N   0  0  0  0  0  0  0  0  0  0  0  0
  -20.8596   68.2331   63.0429 H   0  0  0  0  0  0  0  0  0  0  0  0
  -19.3339   69.2248   61.9678 C   0  0  0  0  0  0  0  0  0  0  0  0
  -18.3433   69.4798   63.1003 C   0  0  0  0  0  0  0  0  0  0  0  0
  -17.1531   69.6838   62.8562 O   0  0  0  0  0  0  0  0  0  0  0  0
  -20.1324   70.4969   61.6744 C   0  0  0  0  0  0  0  0  0  0  0  0
  -21.5536   70.4695   62.2129 C   0  0  0  0  0  0  0  0  0  0  0  0
  -21.6739   71.2294   63.5263 C   0  0  0  0  0  0  0  0  0  0  0  0
  -22.3052   70.4171   64.5629 N   0  0  0  0  0  0  0  0  0  0  0  0
  -21.6730   71.7876   66.3123 N   0  0  0  0  0  0  0  0  0  0  0  0
  -22.8964   69.8918   66.7189 N   0  0  0  0  0  0  0  0  0  0  0  0
  -22.2898   70.7002   65.8626 C   0  0  0  0  0  0  0  0  0  0  0  0
  -21.6678   71.9874   67.2763 H   0  0  0  0  0  0  0  0  0  0  0  0
  -21.2212   72.3936   65.6815 H   0  0  0  0  0  0  0  0  0  0  0  0
  -22.8871   70.0980   67.6816 H   0  0  0  0  0  0  0  0  0  0  0  0
  -23.3565   69.0849   66.3927 H   0  0  0  0  0  0  0  0  0  0  0  0
  -22.4241   65.7842   61.4505 C   0  0  0  0  0  0  0  0  0  0  0  0
  -22.8894   64.4554   61.2864 O   0  0  0  0  0  0  0  0  0  0  0  0
  -22.9835   64.0361   62.1560 H   0  0  0  0  0  0  0  0  0  0  0  0
  -24.4394   65.4531   68.3373 C   0  0  0  0  0  0  0  0  0  0  0  0
  -23.7506   65.7729   69.6648 C   0  0  0  0  0  0  0  0  0  0  0  0
  -24.7273   66.4551   70.6179 C   0  0  0  0  0  0  0  0  0  0  0  0
  -23.1812   64.5058   70.2927 C   0  0  0  0  0  0  0  0  0  0  0  0
  -27.1435   67.6567   63.6422 C   0  0  0  0  0  0  0  0  0  0  0  0
  -26.9411   68.1695   62.2125 C   0  0  0  0  0  0  0  0  0  0  0  0
  -28.5708   67.1343   63.8401 C   0  0  0  0  0  0  0  0  0  0  0  0
  -29.6545   68.1396   63.4748 C   0  0  0  0  0  0  0  0  0  0  0  0
  -26.3572   61.7799   63.5223 C   0  0  0  0  0  0  0  0  0  0  0  0
  -27.1274   60.6004   62.9466 C   0  0  0  0  0  0  0  0  0  0  0  0
  -27.7150   59.6893   64.0130 C   0  0  0  0  0  0  0  0  0  0  0  0
  -26.9800   58.8303   64.5490 O   0  0  0  0  0  0  0  0  0  0  0  0
  -28.9210   59.8363   64.3139 O   0  0  0  0  0  0  0  0  0  0  0  0
  -26.0820   58.7560   64.2921 H   0  0  0  0  0  0  0  0  0  0  0  0
  -31.4128   64.3716   62.5153 C   0  0  0  0  0  0  0  0  0  0  0  0
  -31.5809   64.3961   60.9927 C   0  0  0  0  0  0  0  0  0  0  0  0
  -32.7395   64.6822   63.2183 C   0  0  0  0  0  0  0  0  0  0  0  0
  -32.7981   66.0689   63.8447 C   0  0  0  0  0  0  0  0  0  0  0  0
  -35.2830   61.5397   64.8924 C   0  0  0  0  0  0  0  0  0  0  0  0
  -34.7560   62.1341   65.8349 O   0  0  0  0  0  0  0  0  0  0  0  0
  -34.5968   60.8490   64.0518 N   0  0  0  0  0  0  0  0  0  0  0  0
  -34.9494   60.6081   63.1648 H   0  0  0  0  0  0  0  0  0  0  0  0
  -36.7000   61.8939   64.4480 C   0  0  0  0  0  0  0  0  0  0  0  0
  -37.0756   63.2869   64.9857 C   0  0  0  0  0  0  0  0  0  0  0  0
  -37.0000   64.3408   63.8861 C   0  0  0  0  0  0  0  0  0  0  0  0
  -38.4114   63.2482   65.5048 O   0  0  0  0  0  0  0  0  0  0  0  0
  -39.0275   63.0098   64.7945 H   0  0  0  0  0  0  0  0  0  0  0  0
  -37.7757   59.7269   64.1179 C   0  0  0  0  0  0  0  0  0  0  0  0
  -36.9824   59.4184   63.2264 O   0  0  0  0  0  0  0  0  0  0  0  0
  -37.6496   60.8804   64.8923 N   0  0  0  0  0  0  0  0  0  0  0  0
  -38.1831   61.0058   65.7101 H   0  0  0  0  0  0  0  0  0  0  0  0
  -38.8476   58.7401   64.5764 C   0  0  0  0  0  0  0  0  0  0  0  0
  -41.0003   59.8758   64.3726 C   0  0  0  0  0  0  0  0  0  0  0  0
  -40.7174   60.5648   65.3545 O   0  0  0  0  0  0  0  0  0  0  0  0
  -40.1210   59.0037   63.9135 N   0  0  0  0  0  0  0  0  0  0  0  0
  -40.3336   58.5102   63.0886 H   0  0  0  0  0  0  0  0  0  0  0  0
  -42.3189   60.0860   63.6328 C   0  0  0  0  0  0  0  0  0  0  0  0
  -44.6721   59.5867   63.9146 C   0  0  0  0  0  0  0  0  0  0  0  0
  -44.8405   59.6373   62.6945 O   0  0  0  0  0  0  0  0  0  0  0  0
  -43.4589   59.7410   64.4772 N   0  0  0  0  0  0  0  0  0  0  0  0
  -43.3417   59.6224   65.4475 H   0  0  0  0  0  0  0  0  0  0  0  0
  -45.8391   59.2712   64.8473 C   0  0  0  0  0  0  0  0  0  0  0  0
  -46.0066   60.7241   66.6193 C   0  0  0  0  0  0  0  0  0  0  0  0
  -44.9786   60.1667   67.0081 O   0  0  0  0  0  0  0  0  0  0  0  0
  -46.4036   60.4922   65.4138 N   0  0  0  0  0  0  0  0  0  0  0  0
  -47.0245   61.0796   64.9253 H   0  0  0  0  0  0  0  0  0  0  0  0
  -46.5149   61.9847   67.3135 C   0  0  0  0  0  0  0  0  0  0  0  0
  -46.4423   64.0196   66.2685 C   0  0  0  0  0  0  0  0  0  0  0  0
  -45.2862   63.8223   66.6488 O   0  0  0  0  0  0  0  0  0  0  0  0
  -47.1612   62.8769   66.3577 N   0  0  0  0  0  0  0  0  0  0  0  0
  -47.9865   62.6797   65.8585 H   0  0  0  0  0  0  0  0  0  0  0  0
  -46.7465   65.1143   65.2626 C   0  0  0  0  0  0  0  0  0  0  0  0
  -45.4030   66.3410   63.7972 C   0  0  0  0  0  0  0  0  0  0  0  0
  -45.6494   67.2198   64.6274 O   0  0  0  0  0  0  0  0  0  0  0  0
  -45.8267   65.1278   64.1370 N   0  0  0  0  0  0  0  0  0  0  0  0
  -45.5426   64.3103   63.6677 H   0  0  0  0  0  0  0  0  0  0  0  0
  -44.6384   66.6769   62.5209 C   0  0  0  0  0  0  0  0  0  0  0  0
  -45.4986   67.6296   60.2749 C   0  0  0  0  0  0  0  0  0  0  0  0
  -44.5712   67.4083   59.4933 O   0  0  0  0  0  0  0  0  0  0  0  0
  -45.5280   67.2541   61.5195 N   0  0  0  0  0  0  0  0  0  0  0  0
  -46.4223   67.4055   61.9021 H   0  0  0  0  0  0  0  0  0  0  0  0
  -47.1120   67.9764   58.4235 N   0  0  0  0  0  0  0  0  0  0  0  0
  -46.7640   68.3142   59.7944 C   0  0  0  0  0  0  0  0  0  0  0  0
  -47.9675   68.4651   58.1596 H   0  0  0  0  0  0  0  0  0  0  0  0
  -47.2584   66.9698   58.3481 H   0  0  0  0  0  0  0  0  0  0  0  0
  -43.4912   67.6405   62.8385 C   0  0  0  0  0  0  0  0  0  0  0  0
  -42.0992   67.2149   62.3680 C   0  0  0  0  0  0  0  0  0  0  0  0
  -41.1362   67.1555   63.5491 C   0  0  0  0  0  0  0  0  0  0  0  0
  -42.1636   65.8684   61.6553 C   0  0  0  0  0  0  0  0  0  0  0  0
  -47.4761   61.5952   68.4521 C   0  0  0  0  0  0  0  0  0  0  0  0
  -48.9170   61.9527   68.1019 C   0  0  0  0  0  0  0  0  0  0  0  0
  -47.3880   60.1838   68.6820 O   0  0  0  0  0  0  0  0  0  0  0  0
  -47.6462   59.7084   67.8769 H   0  0  0  0  0  0  0  0  0  0  0  0
  -46.9125   58.4799   64.0976 C   0  0  0  0  0  0  0  0  0  0  0  0
  -48.3196   58.9744   64.3801 C   0  0  0  0  0  0  0  0  0  0  0  0
  -48.9534   59.5611   63.4767 O   0  0  0  0  0  0  0  0  0  0  0  0
  -48.7985   58.7790   65.5186 O   0  0  0  0  0  0  0  0  0  0  0  0
  -48.5603   59.6886   62.6357 H   0  0  0  0  0  0  0  0  0  0  0  0
  -42.4263   61.5354   63.1507 C   0  0  0  0  0  0  0  0  0  0  0  0
  -43.1551   62.4528   64.1202 C   0  0  0  0  0  0  0  0  0  0  0  0
  -42.3162   63.6381   64.5726 C   0  0  0  0  0  0  0  0  0  0  0  0
  -41.0980   63.6630   64.2887 O   0  0  0  0  0  0  0  0  0  0  0  0
  -42.8841   64.5485   65.2168 O   0  0  0  0  0  0  0  0  0  0  0  0
  -43.7997   64.4872   65.4065 H   0  0  0  0  0  0  0  0  0  0  0  0
  -38.3904   57.3050   64.3088 C   0  0  0  0  0  0  0  0  0  0  0  0
  -39.4478   56.2710   64.6548 C   0  0  0  0  0  0  0  0  0  0  0  0
  -40.1162   55.7519   63.7354 O   0  0  0  0  0  0  0  0  0  0  0  0
  -39.6151   55.9748   65.8578 O   0  0  0  0  0  0  0  0  0  0  0  0
  -39.0935   56.3864   66.5186 H   0  0  0  0  0  0  0  0  0  0  0  0
  -33.1311   58.9189   64.4515 C   0  0  0  0  0  0  0  0  0  0  0  0
  -31.9798   58.3196   65.2615 C   0  0  0  0  0  0  0  0  0  0  0  0
  -32.4896   57.7906   66.5977 C   0  0  0  0  0  0  0  0  0  0  0  0
  -31.2876   57.2142   64.4713 C   0  0  0  0  0  0  0  0  0  0  0  0
130128  2  0  0  0
128129  1  0  0  0
128127  1  0  0  0
127 95  1  0  0  0
122120  1  0  0  0
115116  1  0  0  0
135134  2  0  0  0
145144  1  0  0  0
120121  1  0  0  0
120119  1  0  0  0
116111  1  0  0  0
 95 98  1  0  0  0
 95 91  1  0  0  0
146144  1  0  0  0
111113  1  0  0  0
111112  2  0  0  0
113110  1  0  0  0
134133  1  0  0  0
134136  1  0  0  0
110119  1  0  0  0
110106  1  0  0  0
 98 96  1  0  0  0
125123  1  0  0  0
144143  1  0  0  0
133132  1  0  0  0
 91 92  2  0  0  0
 91 93  1  0  0  0
 93 90  1  0  0  0
123100  1  0  0  0
123124  1  0  0  0
 96 97  2  0  0  0
 96100  1  0  0  0
106108  1  0  0  0
106107  2  0  0  0
103100  1  0  0  0
103101  1  0  0  0
108105  1  0  0  0
 90132  1  0  0  0
 90 86  1  0  0  0
143  1  1  0  0  0
101105  1  0  0  0
101102  2  0  0  0
 78 77  1  0  0  0
 77 79  1  0  0  0
 77 76  1  0  0  0
 61 60  1  0  0  0
  1 74  1  0  0  0
  1  2  1  0  0  0
 86 87  2  0  0  0
 86 88  1  0  0  0
 74 72  1  0  0  0
 72 76  1  0  0  0
 72 73  2  0  0  0
 88 85  1  0  0  0
 76 83  1  0  0  0
 83 81  1  0  0  0
  2  3  2  0  0  0
  2  4  1  0  0  0
 60 58  1  0  0  0
 44 46  1  0  0  0
 59 58  1  0  0  0
 56 55  1  0  0  0
 57 55  1  0  0  0
 58 16  1  0  0  0
 55 54  1  0  0  0
 81 85  1  0  0  0
 81 82  2  0  0  0
 85138  1  0  0  0
  4  6  1  0  0  0
 45 46  1  0  0  0
 46 43  2  0  0  0
138139  1  0  0  0
 70 71  1  0  0  0
 70 68  1  0  0  0
139140  2  0  0  0
139141  1  0  0  0
 16 14  1  0  0  0
 16 17  1  0  0  0
  6 68  1  0  0  0
  6  7  1  0  0  0
 43 42  1  0  0  0
 14 12  1  0  0  0
 42 41  1  0  0  0
 54 21  1  0  0  0
 19 17  1  0  0  0
 19 21  1  0  0  0
 17 18  2  0  0  0
  9  7  1  0  0  0
  9 11  1  0  0  0
 68 69  1  0  0  0
 21 22  1  0  0  0
  7  8  2  0  0  0
 66 64  2  0  0  0
 62 11  1  0  0  0
 62 63  1  0  0  0
 12 11  1  0  0  0
 12 13  2  0  0  0
 41 40  1  0  0  0
 64 63  1  0  0  0
 64 65  1  0  0  0
 22 23  2  0  0  0
 22 24  1  0  0  0
 40 37  1  0  0  0
 24 26  1  0  0  0
 37 35  1  0  0  0
 37 38  1  0  0  0
 35 33  1  0  0  0
 30 32  1  0  0  0
 30 28  1  0  0  0
 51 52  1  0  0  0
 51 32  1  0  0  0
 26 27  1  0  0  0
 26 28  1  0  0  0
 33 32  1  0  0  0
 33 34  2  0  0  0
 38 39  2  0  0  0
 28 29  2  0  0  0
115117  1  0  0  0
115118  1  0  0  0
113114  1  0  0  0
108109  1  0  0  0
103104  1  0  0  0
125126  1  0  0  0
 98 99  1  0  0  0
129131  1  0  0  0
 93 94  1  0  0  0
136137  1  0  0  0
 88 89  1  0  0  0
141142  1  0  0  0
 83 84  1  0  0  0
 79 80  1  0  0  0
 74 75  1  0  0  0
  4  5  1  0  0  0
  9 10  1  0  0  0
 65 67  1  0  0  0
 14 15  1  0  0  0
 19 20  1  0  0  0
 24 25  1  0  0  0
 30 31  1  0  0  0
 52 53  1  0  0  0
 35 36  1  0  0  0
 44 47  1  0  0  0
 44 48  1  0  0  0
 45 49  1  0  0  0
 45 50  1  0  0  0
M  END
> <MODEL>
    1                                                                     

> <minimizedAffinity>
-8.40926

> <CNNscore>
0.0768732354

> <CNNaffinity>
6.5173325539

> <CNN_VS>
0.5010084510

> <CNNaffinity_variance>
1.2004599571

$$$$



146145  0  0  0  0  0  0  0  0999 V2000
  -30.6070   59.3081   64.5498 C   0  0  0  0  0  0  0  0  0  0  0  0
  -31.6586   59.9002   65.4820 C   0  0  0  0  0  0  0  0  0  0  0  0
  -32.2614   59.1809   66.2816 O   0  0  0  0  0  0  0  0  0  0  0  0
  -32.1009   61.0776   65.2994 N   0  0  0  0  0  0  0  0  0  0  0  0
  -31.7738   61.5716   64.5131 H   0  0  0  0  0  0  0  0  0  0  0  0
  -33.0585   61.7502   66.1707 C   0  0  0  0  0  0  0  0  0  0  0  0
  -34.1881   62.3456   65.3325 C   0  0  0  0  0  0  0  0  0  0  0  0
  -33.9811   63.3186   64.6040 O   0  0  0  0  0  0  0  0  0  0  0  0
  -35.3653   61.9076   65.6387 N   0  0  0  0  0  0  0  0  0  0  0  0
  -35.5033   61.2835   66.3875 H   0  0  0  0  0  0  0  0  0  0  0  0
  -36.4804   62.3802   64.8241 C   0  0  0  0  0  0  0  0  0  0  0  0
  -37.6185   62.9011   65.6957 C   0  0  0  0  0  0  0  0  0  0  0  0
  -37.4365   63.1292   66.8930 O   0  0  0  0  0  0  0  0  0  0  0  0
  -38.7742   63.0036   65.0142 N   0  0  0  0  0  0  0  0  0  0  0  0
  -38.8626   62.7376   64.0705 H   0  0  0  0  0  0  0  0  0  0  0  0
  -39.8847   63.5416   65.7911 C   0  0  0  0  0  0  0  0  0  0  0  0
  -40.7648   62.3987   66.2919 C   0  0  0  0  0  0  0  0  0  0  0  0
  -40.3006   61.5271   67.0318 O   0  0  0  0  0  0  0  0  0  0  0  0
  -41.9986   62.3943   65.8312 N   0  0  0  0  0  0  0  0  0  0  0  0
  -42.2962   63.0886   65.1998 H   0  0  0  0  0  0  0  0  0  0  0  0
  -42.9200   61.3500   66.2661 C   0  0  0  0  0  0  0  0  0  0  0  0
  -43.3743   60.5001   65.0848 C   0  0  0  0  0  0  0  0  0  0  0  0
  -42.5516   60.0561   64.2813 O   0  0  0  0  0  0  0  0  0  0  0  0
  -44.6448   60.2284   64.9180 N   0  0  0  0  0  0  0  0  0  0  0  0
  -45.2921   60.6107   65.5536 H   0  0  0  0  0  0  0  0  0  0  0  0
  -45.1492   59.3867   63.8363 C   0  0  0  0  0  0  0  0  0  0  0  0
  -46.3940   58.6262   64.2898 C   0  0  0  0  0  0  0  0  0  0  0  0
  -45.4611   60.2175   62.5941 C   0  0  0  0  0  0  0  0  0  0  0  0
  -44.5857   60.4437   61.7562 O   0  0  0  0  0  0  0  0  0  0  0  0
  -46.7232   60.7618   62.5472 N   0  0  0  0  0  0  0  0  0  0  0  0
  -47.3678   60.6280   63.2792 H   0  0  0  0  0  0  0  0  0  0  0  0
  -47.0656   61.5466   61.3652 C   0  0  0  0  0  0  0  0  0  0  0  0
  -48.3005   62.4065   61.6108 C   0  0  0  0  0  0  0  0  0  0  0  0
  -48.7707   63.0997   60.7066 O   0  0  0  0  0  0  0  0  0  0  0  0
  -48.8245   62.4940   62.8166 N   0  0  0  0  0  0  0  0  0  0  0  0
  -48.4801   61.8992   63.5214 H   0  0  0  0  0  0  0  0  0  0  0  0
  -49.8909   63.4304   63.1576 C   0  0  0  0  0  0  0  0  0  0  0  0
  -49.8636   63.7744   64.6441 C   0  0  0  0  0  0  0  0  0  0  0  0
  -48.8903   64.3478   65.1357 O   0  0  0  0  0  0  0  0  0  0  0  0
  -51.2562   62.8518   62.7791 C   0  0  0  0  0  0  0  0  0  0  0  0
  -52.4332   63.6626   63.2968 C   0  0  0  0  0  0  0  0  0  0  0  0
  -53.0284   64.5487   62.2116 C   0  0  0  0  0  0  0  0  0  0  0  0
  -54.2551   65.2012   62.6616 N   0  0  0  0  0  0  0  0  0  0  0  0
  -54.2504   66.8130   61.0061 N   0  0  0  0  0  0  0  0  0  0  0  0
  -55.9245   66.7757   62.5720 N   0  0  0  0  0  0  0  0  0  0  0  0
  -54.8072   66.2623   62.0794 C   0  0  0  0  0  0  0  0  0  0  0  0
  -54.6675   67.5981   60.5832 H   0  0  0  0  0  0  0  0  0  0  0  0
  -53.4207   66.4359   60.6338 H   0  0  0  0  0  0  0  0  0  0  0  0
  -56.3360   67.5610   62.1439 H   0  0  0  0  0  0  0  0  0  0  0  0
  -56.3434   66.3721   63.3663 H   0  0  0  0  0  0  0  0  0  0  0  0
  -47.3024   60.6306   60.1642 C   0  0  0  0  0  0  0  0  0  0  0  0
  -46.2773   60.7928   59.1986 O   0  0  0  0  0  0  0  0  0  0  0  0
  -45.4217   60.5629   59.5936 H   0  0  0  0  0  0  0  0  0  0  0  0
  -44.1350   61.9646   66.9658 C   0  0  0  0  0  0  0  0  0  0  0  0
  -44.2321   63.4906   66.9390 C   0  0  0  0  0  0  0  0  0  0  0  0
  -45.6477   63.9253   66.5723 C   0  0  0  0  0  0  0  0  0  0  0  0
  -43.8194   64.0780   68.2840 C   0  0  0  0  0  0  0  0  0  0  0  0
  -40.7229   64.5404   64.9622 C   0  0  0  0  0  0  0  0  0  0  0  0
  -40.4269   65.9811   65.3918 C   0  0  0  0  0  0  0  0  0  0  0  0
  -40.4555   64.3491   63.4652 C   0  0  0  0  0  0  0  0  0  0  0  0
  -40.5660   65.6289   62.6477 C   0  0  0  0  0  0  0  0  0  0  0  0
  -36.9875   61.2640   63.9072 C   0  0  0  0  0  0  0  0  0  0  0  0
  -37.0194   59.8930   64.5667 C   0  0  0  0  0  0  0  0  0  0  0  0
  -38.3163   59.1383   64.3198 C   0  0  0  0  0  0  0  0  0  0  0  0
  -38.2623   57.9455   63.9461 O   0  0  0  0  0  0  0  0  0  0  0  0
  -39.3953   59.7463   64.5014 O   0  0  0  0  0  0  0  0  0  0  0  0
  -37.4313   57.5304   63.8228 H   0  0  0  0  0  0  0  0  0  0  0  0
  -32.3780   62.8522   67.0131 C   0  0  0  0  0  0  0  0  0  0  0  0
  -30.9483   63.1019   66.5224 C   0  0  0  0  0  0  0  0  0  0  0  0
  -33.2049   64.1427   66.9718 C   0  0  0  0  0  0  0  0  0  0  0  0
  -32.3852   65.4098   67.1757 C   0  0  0  0  0  0  0  0  0  0  0  0
  -28.5205   59.8110   63.6413 C   0  0  0  0  0  0  0  0  0  0  0  0
  -28.6370   58.8511   62.8769 O   0  0  0  0  0  0  0  0  0  0  0  0
  -29.5023   60.2394   64.3533 N   0  0  0  0  0  0  0  0  0  0  0  0
  -29.5077   61.1435   64.7430 H   0  0  0  0  0  0  0  0  0  0  0  0
  -27.3408   60.7707   63.5059 C   0  0  0  0  0  0  0  0  0  0  0  0
  -26.2642   60.4139   64.5472 C   0  0  0  0  0  0  0  0  0  0  0  0
  -25.5228   59.1392   64.1584 C   0  0  0  0  0  0  0  0  0  0  0  0
  -25.3234   61.4913   64.6417 O   0  0  0  0  0  0  0  0  0  0  0  0
  -24.8956   61.6236   63.7812 H   0  0  0  0  0  0  0  0  0  0  0  0
  -28.1361   62.8446   62.4920 C   0  0  0  0  0  0  0  0  0  0  0  0
  -28.3171   62.2958   61.4032 O   0  0  0  0  0  0  0  0  0  0  0  0
  -27.7803   62.1535   63.6503 N   0  0  0  0  0  0  0  0  0  0  0  0
  -27.8244   62.5844   64.5345 H   0  0  0  0  0  0  0  0  0  0  0  0
  -28.5010   64.3148   62.6883 C   0  0  0  0  0  0  0  0  0  0  0  0
  -26.2097   65.0306   62.2377 C   0  0  0  0  0  0  0  0  0  0  0  0
  -25.7933   64.0625   62.8767 O   0  0  0  0  0  0  0  0  0  0  0  0
  -27.5100   65.1884   62.0677 N   0  0  0  0  0  0  0  0  0  0  0  0
  -27.8243   65.9271   61.4977 H   0  0  0  0  0  0  0  0  0  0  0  0
  -25.2337   65.9948   61.5684 C   0  0  0  0  0  0  0  0  0  0  0  0
  -25.7077   66.5901   59.2690 C   0  0  0  0  0  0  0  0  0  0  0  0
  -25.0406   65.6327   58.8719 O   0  0  0  0  0  0  0  0  0  0  0  0
  -25.9100   66.8281   60.5785 N   0  0  0  0  0  0  0  0  0  0  0  0
  -26.5074   67.5561   60.8654 H   0  0  0  0  0  0  0  0  0  0  0  0
  -26.4020   67.5186   58.2754 C   0  0  0  0  0  0  0  0  0  0  0  0
  -28.5769   67.8461   57.6108 C   0  0  0  0  0  0  0  0  0  0  0  0
  -28.1726   67.4295   56.5238 O   0  0  0  0  0  0  0  0  0  0  0  0
  -27.8022   67.7199   58.6349 N   0  0  0  0  0  0  0  0  0  0  0  0
  -28.1232   67.7558   59.5649 H   0  0  0  0  0  0  0  0  0  0  0  0
  -30.0698   68.0434   57.8589 C   0  0  0  0  0  0  0  0  0  0  0  0
  -31.5882   66.5809   58.7496 C   0  0  0  0  0  0  0  0  0  0  0  0
  -31.6441   66.3870   57.5333 O   0  0  0  0  0  0  0  0  0  0  0  0
  -30.4961   67.3203   59.0517 N   0  0  0  0  0  0  0  0  0  0  0  0
  -30.0601   67.3633   59.9333 H   0  0  0  0  0  0  0  0  0  0  0  0
  -32.2146   65.5937   59.7170 C   0  0  0  0  0  0  0  0  0  0  0  0
  -33.4361   66.8319   61.2764 C   0  0  0  0  0  0  0  0  0  0  0  0
  -32.3084   67.2772   61.5051 O   0  0  0  0  0  0  0  0  0  0  0  0
  -33.5074   66.0285   60.2199 N   0  0  0  0  0  0  0  0  0  0  0  0
  -34.3606   65.7522   59.8138 H   0  0  0  0  0  0  0  0  0  0  0  0
  -34.6184   67.2377   62.1505 C   0  0  0  0  0  0  0  0  0  0  0  0
  -36.5699   67.2173   60.4524 C   0  0  0  0  0  0  0  0  0  0  0  0
  -36.1553   67.9192   59.5277 O   0  0  0  0  0  0  0  0  0  0  0  0
  -35.8816   66.8941   61.5073 N   0  0  0  0  0  0  0  0  0  0  0  0
  -36.3577   66.2096   62.0307 H   0  0  0  0  0  0  0  0  0  0  0  0
  -37.9340   65.1557   60.6528 N   0  0  0  0  0  0  0  0  0  0  0  0
  -37.9465   66.5843   60.3814 C   0  0  0  0  0  0  0  0  0  0  0  0
  -38.8840   64.7895   60.5904 H   0  0  0  0  0  0  0  0  0  0  0  0
  -37.5669   64.9909   61.5900 H   0  0  0  0  0  0  0  0  0  0  0  0
  -34.5118   66.5595   63.5195 C   0  0  0  0  0  0  0  0  0  0  0  0
  -34.4159   67.4895   64.7303 C   0  0  0  0  0  0  0  0  0  0  0  0
  -33.0435   68.1527   64.7813 C   0  0  0  0  0  0  0  0  0  0  0  0
  -35.5217   68.5387   64.6885 C   0  0  0  0  0  0  0  0  0  0  0  0
  -30.3791   69.5476   57.9772 C   0  0  0  0  0  0  0  0  0  0  0  0
  -30.5610   69.9585   59.4349 C   0  0  0  0  0  0  0  0  0  0  0  0
  -29.2972   70.2977   57.4123 O   0  0  0  0  0  0  0  0  0  0  0  0
  -28.4811   70.1058   57.9003 H   0  0  0  0  0  0  0  0  0  0  0  0
  -25.6666   68.8584   58.2054 C   0  0  0  0  0  0  0  0  0  0  0  0
  -26.0838   69.8218   59.3018 C   0  0  0  0  0  0  0  0  0  0  0  0
  -27.0515   70.5879   59.1056 O   0  0  0  0  0  0  0  0  0  0  0  0
  -25.4362   69.8176   60.3716 O   0  0  0  0  0  0  0  0  0  0  0  0
  -27.5122   70.5614   58.2901 H   0  0  0  0  0  0  0  0  0  0  0  0
  -24.5467   66.8651   62.6244 C   0  0  0  0  0  0  0  0  0  0  0  0
  -25.1175   66.6981   64.0241 C   0  0  0  0  0  0  0  0  0  0  0  0
  -24.1098   66.1504   65.0231 C   0  0  0  0  0  0  0  0  0  0  0  0
  -23.4938   66.9489   65.7635 O   0  0  0  0  0  0  0  0  0  0  0  0
  -23.9360   64.9117   65.0638 O   0  0  0  0  0  0  0  0  0  0  0  0
  -24.4202   64.3515   64.4895 H   0  0  0  0  0  0  0  0  0  0  0  0
  -29.8930   64.5920   62.1176 C   0  0  0  0  0  0  0  0  0  0  0  0
  -31.0094   64.2852   63.1006 C   0  0  0  0  0  0  0  0  0  0  0  0
  -31.4087   65.1858   63.8694 O   0  0  0  0  0  0  0  0  0  0  0  0
  -31.4921   63.1320   63.1075 O   0  0  0  0  0  0  0  0  0  0  0  0
  -31.1653   62.4838   62.5149 H   0  0  0  0  0  0  0  0  0  0  0  0
  -30.0951   57.9813   65.1169 C   0  0  0  0  0  0  0  0  0  0  0  0
  -30.7929   56.7152   64.6162 C   0  0  0  0  0  0  0  0  0  0  0  0
  -31.8588   57.0689   63.5847 C   0  0  0  0  0  0  0  0  0  0  0  0
  -29.7772   55.7398   64.0309 C   0  0  0  0  0  0  0  0  0  0  0  0
130128  2  0  0  0
128129  1  0  0  0
128127  1  0  0  0
127 95  1  0  0  0
122120  1  0  0  0
115116  1  0  0  0
135134  2  0  0  0
145144  1  0  0  0
120121  1  0  0  0
120119  1  0  0  0
116111  1  0  0  0
 95 98  1  0  0  0
 95 91  1  0  0  0
146144  1  0  0  0
111113  1  0  0  0
111112  2  0  0  0
113110  1  0  0  0
134133  1  0  0  0
134136  1  0  0  0
110119  1  0  0  0
110106  1  0  0  0
 98 96  1  0  0  0
125123  1  0  0  0
144143  1  0  0  0
133132  1  0  0  0
 91 92  2  0  0  0
 91 93  1  0  0  0
 93 90  1  0  0  0
123100  1  0  0  0
123124  1  0  0  0
 96 97  2  0  0  0
 96100  1  0  0  0
106108  1  0  0  0
106107  2  0  0  0
103100  1  0  0  0
103101  1  0  0  0
108105  1  0  0  0
 90132  1  0  0  0
 90 86  1  0  0  0
143  1  1  0  0  0
101105  1  0  0  0
101102  2  0  0  0
 78 77  1  0  0  0
 77 79  1  0  0  0
 77 76  1  0  0  0
 61 60  1  0  0  0
  1 74  1  0  0  0
  1  2  1  0  0  0
 86 87  2  0  0  0
 86 88  1  0  0  0
 74 72  1  0  0  0
 72 76  1  0  0  0
 72 73  2  0  0  0
 88 85  1  0  0  0
 76 83  1  0  0  0
 83 81  1  0  0  0
  2  3  2  0  0  0
  2  4  1  0  0  0
 60 58  1  0  0  0
 44 46  1  0  0  0
 59 58  1  0  0  0
 56 55  1  0  0  0
 57 55  1  0  0  0
 58 16  1  0  0  0
 55 54  1  0  0  0
 81 85  1  0  0  0
 81 82  2  0  0  0
 85138  1  0  0  0
  4  6  1  0  0  0
 45 46  1  0  0  0
 46 43  2  0  0  0
138139  1  0  0  0
 70 71  1  0  0  0
 70 68  1  0  0  0
139140  2  0  0  0
139141  1  0  0  0
 16 14  1  0  0  0
 16 17  1  0  0  0
  6 68  1  0  0  0
  6  7  1  0  0  0
 43 42  1  0  0  0
 14 12  1  0  0  0
 42 41  1  0  0  0
 54 21  1  0  0  0
 19 17  1  0  0  0
 19 21  1  0  0  0
 17 18  2  0  0  0
  9  7  1  0  0  0
  9 11  1  0  0  0
 68 69  1  0  0  0
 21 22  1  0  0  0
  7  8  2  0  0  0
 66 64  2  0  0  0
 62 11  1  0  0  0
 62 63  1  0  0  0
 12 11  1  0  0  0
 12 13  2  0  0  0
 41 40  1  0  0  0
 64 63  1  0  0  0
 64 65  1  0  0  0
 22 23  2  0  0  0
 22 24  1  0  0  0
 40 37  1  0  0  0
 24 26  1  0  0  0
 37 35  1  0  0  0
 37 38  1  0  0  0
 35 33  1  0  0  0
 30 32  1  0  0  0
 30 28  1  0  0  0
 51 52  1  0  0  0
 51 32  1  0  0  0
 26 27  1  0  0  0
 26 28  1  0  0  0
 33 32  1  0  0  0
 33 34  2  0  0  0
 38 39  2  0  0  0
 28 29  2  0  0  0
115117  1  0  0  0
115118  1  0  0  0
113114  1  0  0  0
108109  1  0  0  0
103104  1  0  0  0
125126  1  0  0  0
 98 99  1  0  0  0
129131  1  0  0  0
 93 94  1  0  0  0
136137  1  0  0  0
 88 89  1  0  0  0
141142  1  0  0  0
 83 84  1  0  0  0
 79 80  1  0  0  0
 74 75  1  0  0  0
  4  5  1  0  0  0
  9 10  1  0  0  0
 65 67  1  0  0  0
 14 15  1  0  0  0
 19 20  1  0  0  0
 24 25  1  0  0  0
 30 31  1  0  0  0
 52 53  1  0  0  0
 35 36  1  0  0  0
 44 47  1  0  0  0
 44 48  1  0  0  0
 45 49  1  0  0  0
 45 50  1  0  0  0
M  END
> <MODEL>
    1                                                                     

> <minimizedAffinity>
-9.00501

> <CNNscore>
0.0765873343

> <CNNaffinity>
7.1029281616

> <CNN_VS>
0.5439943075

> <CNNaffinity_variance>
2.7066793442

$$$$



146145  0  0  0  0  0  0  0  0999 V2000
  -34.5029   62.7626   64.9162 C   0  0  0  0  0  0  0  0  0  0  0  0
  -33.2594   62.0895   65.4873 C   0  0  0  0  0  0  0  0  0  0  0  0
  -32.7672   62.4818   66.5475 O   0  0  0  0  0  0  0  0  0  0  0  0
  -32.5753   61.2822   64.7833 N   0  0  0  0  0  0  0  0  0  0  0  0
  -32.8517   61.1441   63.8486 H   0  0  0  0  0  0  0  0  0  0  0  0
  -31.4100   60.5454   65.2602 C   0  0  0  0  0  0  0  0  0  0  0  0
  -30.1332   61.2541   64.8121 C   0  0  0  0  0  0  0  0  0  0  0  0
  -29.7148   62.2378   65.4265 O   0  0  0  0  0  0  0  0  0  0  0  0
  -29.7038   60.8908   63.6481 N   0  0  0  0  0  0  0  0  0  0  0  0
  -30.2029   60.2489   63.0930 H   0  0  0  0  0  0  0  0  0  0  0  0
  -28.4457   61.4751   63.1942 C   0  0  0  0  0  0  0  0  0  0  0  0
  -28.6851   62.5455   62.1343 C   0  0  0  0  0  0  0  0  0  0  0  0
  -28.6617   62.2570   60.9364 O   0  0  0  0  0  0  0  0  0  0  0  0
  -28.8509   63.7667   62.6742 N   0  0  0  0  0  0  0  0  0  0  0  0
  -28.7893   63.9351   63.6422 H   0  0  0  0  0  0  0  0  0  0  0  0
  -29.1294   64.8199   61.7049 C   0  0  0  0  0  0  0  0  0  0  0  0
  -27.9640   65.8059   61.6660 C   0  0  0  0  0  0  0  0  0  0  0  0
  -27.8448   66.5997   60.7289 O   0  0  0  0  0  0  0  0  0  0  0  0
  -27.0989   65.6948   62.6528 N   0  0  0  0  0  0  0  0  0  0  0  0
  -27.2196   65.0048   63.3446 H   0  0  0  0  0  0  0  0  0  0  0  0
  -25.9599   66.6047   62.7103 C   0  0  0  0  0  0  0  0  0  0  0  0
  -24.6457   65.8328   62.6741 C   0  0  0  0  0  0  0  0  0  0  0  0
  -24.5895   64.7188   62.1492 O   0  0  0  0  0  0  0  0  0  0  0  0
  -23.5617   66.3516   63.1954 N   0  0  0  0  0  0  0  0  0  0  0  0
  -23.6280   67.2310   63.6330 H   0  0  0  0  0  0  0  0  0  0  0  0
  -22.2599   65.6907   63.1601 C   0  0  0  0  0  0  0  0  0  0  0  0
  -21.4741   66.1285   61.9253 C   0  0  0  0  0  0  0  0  0  0  0  0
  -21.4603   65.9849   64.4267 C   0  0  0  0  0  0  0  0  0  0  0  0
  -20.4124   65.3791   64.6605 O   0  0  0  0  0  0  0  0  0  0  0  0
  -22.0435   66.8699   65.3031 N   0  0  0  0  0  0  0  0  0  0  0  0
  -22.9245   67.2692   65.1197 H   0  0  0  0  0  0  0  0  0  0  0  0
  -21.2996   67.1916   66.5170 C   0  0  0  0  0  0  0  0  0  0  0  0
  -22.2305   67.6702   67.6257 C   0  0  0  0  0  0  0  0  0  0  0  0
  -23.4522   67.5553   67.5107 O   0  0  0  0  0  0  0  0  0  0  0  0
  -21.7476   68.2987   68.6784 N   0  0  0  0  0  0  0  0  0  0  0  0
  -20.7706   68.3404   68.7918 H   0  0  0  0  0  0  0  0  0  0  0  0
  -22.5916   68.9360   69.6843 C   0  0  0  0  0  0  0  0  0  0  0  0
  -22.3035   70.4320   69.7733 C   0  0  0  0  0  0  0  0  0  0  0  0
  -21.6826   70.8935   70.7321 O   0  0  0  0  0  0  0  0  0  0  0  0
  -22.3864   68.2810   71.0521 C   0  0  0  0  0  0  0  0  0  0  0  0
  -23.6589   68.1633   71.8752 C   0  0  0  0  0  0  0  0  0  0  0  0
  -24.1801   66.7334   71.9066 C   0  0  0  0  0  0  0  0  0  0  0  0
  -24.6254   66.2932   70.5871 N   0  0  0  0  0  0  0  0  0  0  0  0
  -23.2854   64.4117   70.5345 N   0  0  0  0  0  0  0  0  0  0  0  0
  -24.6623   64.8944   68.7662 N   0  0  0  0  0  0  0  0  0  0  0  0
  -24.1897   65.2010   69.9650 C   0  0  0  0  0  0  0  0  0  0  0  0
  -22.9699   63.6058   70.0651 H   0  0  0  0  0  0  0  0  0  0  0  0
  -22.9307   64.6327   71.4259 H   0  0  0  0  0  0  0  0  0  0  0  0
  -24.3423   64.0869   68.3027 H   0  0  0  0  0  0  0  0  0  0  0  0
  -25.3335   65.4739   68.3387 H   0  0  0  0  0  0  0  0  0  0  0  0
  -20.2429   68.2589   66.2307 C   0  0  0  0  0  0  0  0  0  0  0  0
  -20.8371   69.5427   66.1395 O   0  0  0  0  0  0  0  0  0  0  0  0
  -21.2695   69.7593   66.9804 H   0  0  0  0  0  0  0  0  0  0  0  0
  -26.0254   67.4662   63.9740 C   0  0  0  0  0  0  0  0  0  0  0  0
  -26.1115   68.9780   63.7595 C   0  0  0  0  0  0  0  0  0  0  0  0
  -27.5230   69.3739   63.3368 C   0  0  0  0  0  0  0  0  0  0  0  0
  -25.6985   69.7235   65.0236 C   0  0  0  0  0  0  0  0  0  0  0  0
  -30.4458   65.5583   62.0351 C   0  0  0  0  0  0  0  0  0  0  0  0
  -30.1640   66.8308   62.8409 C   0  0  0  0  0  0  0  0  0  0  0  0
  -31.2134   65.8832   60.7488 C   0  0  0  0  0  0  0  0  0  0  0  0
  -31.5609   64.6612   59.9095 C   0  0  0  0  0  0  0  0  0  0  0  0
  -27.5155   60.3897   62.6460 C   0  0  0  0  0  0  0  0  0  0  0  0
  -27.2225   59.2726   63.6369 C   0  0  0  0  0  0  0  0  0  0  0  0
  -25.7970   59.2981   64.1658 C   0  0  0  0  0  0  0  0  0  0  0  0
  -25.6020   59.1416   65.3917 O   0  0  0  0  0  0  0  0  0  0  0  0
  -24.8679   59.4769   63.3464 O   0  0  0  0  0  0  0  0  0  0  0  0
  -26.3286   59.0107   65.9687 H   0  0  0  0  0  0  0  0  0  0  0  0
  -31.4187   59.0858   64.7535 C   0  0  0  0  0  0  0  0  0  0  0  0
  -31.4393   58.1054   65.9306 C   0  0  0  0  0  0  0  0  0  0  0  0
  -32.6147   58.8507   63.8234 C   0  0  0  0  0  0  0  0  0  0  0  0
  -32.5211   57.5688   63.0068 C   0  0  0  0  0  0  0  0  0  0  0  0
  -36.6536   62.0880   64.3238 C   0  0  0  0  0  0  0  0  0  0  0  0
  -36.4752   62.5551   63.1972 O   0  0  0  0  0  0  0  0  0  0  0  0
  -35.6924   61.9580   65.1687 N   0  0  0  0  0  0  0  0  0  0  0  0
  -35.7562   61.3507   65.9409 H   0  0  0  0  0  0  0  0  0  0  0  0
  -37.9184   61.2945   64.6423 C   0  0  0  0  0  0  0  0  0  0  0  0
  -37.5958   59.7890   64.6427 C   0  0  0  0  0  0  0  0  0  0  0  0
  -38.8661   58.9534   64.5253 C   0  0  0  0  0  0  0  0  0  0  0  0
  -36.7359   59.4901   63.5353 O   0  0  0  0  0  0  0  0  0  0  0  0
  -37.1868   59.7139   62.7062 H   0  0  0  0  0  0  0  0  0  0  0  0
  -39.7968   62.7037   63.9734 C   0  0  0  0  0  0  0  0  0  0  0  0
  -39.5362   63.5404   64.8402 O   0  0  0  0  0  0  0  0  0  0  0  0
  -38.9789   61.6092   63.6923 N   0  0  0  0  0  0  0  0  0  0  0  0
  -39.1130   61.0681   62.8808 H   0  0  0  0  0  0  0  0  0  0  0  0
  -40.9471   62.9345   62.9953 C   0  0  0  0  0  0  0  0  0  0  0  0
  -43.0037   64.0949   63.6193 C   0  0  0  0  0  0  0  0  0  0  0  0
  -43.5923   63.0125   63.6494 O   0  0  0  0  0  0  0  0  0  0  0  0
  -41.7100   64.1258   63.3547 N   0  0  0  0  0  0  0  0  0  0  0  0
  -41.2401   64.9896   63.4019 H   0  0  0  0  0  0  0  0  0  0  0  0
  -43.7377   65.3858   63.9727 C   0  0  0  0  0  0  0  0  0  0  0  0
  -43.1903   65.3748   66.3320 C   0  0  0  0  0  0  0  0  0  0  0  0
  -41.9885   65.4351   66.0650 O   0  0  0  0  0  0  0  0  0  0  0  0
  -44.1384   65.3981   65.3766 N   0  0  0  0  0  0  0  0  0  0  0  0
  -45.0915   65.4231   65.6218 H   0  0  0  0  0  0  0  0  0  0  0  0
  -43.6629   65.3427   67.7836 C   0  0  0  0  0  0  0  0  0  0  0  0
  -45.0106   66.8081   68.9304 C   0  0  0  0  0  0  0  0  0  0  0  0
  -43.9472   67.2224   69.3952 O   0  0  0  0  0  0  0  0  0  0  0  0
  -44.9596   65.9969   67.9284 N   0  0  0  0  0  0  0  0  0  0  0  0
  -45.7187   65.8355   67.3226 H   0  0  0  0  0  0  0  0  0  0  0  0
  -46.3117   67.5677   69.1747 C   0  0  0  0  0  0  0  0  0  0  0  0
  -47.4127   68.1815   67.2645 C   0  0  0  0  0  0  0  0  0  0  0  0
  -46.3805   68.8557   67.2605 O   0  0  0  0  0  0  0  0  0  0  0  0
  -47.3202   67.1972   68.1883 N   0  0  0  0  0  0  0  0  0  0  0  0
  -47.8478   66.3661   68.1937 H   0  0  0  0  0  0  0  0  0  0  0  0
  -48.2632   68.0667   66.0130 C   0  0  0  0  0  0  0  0  0  0  0  0
  -50.4493   68.7415   65.5412 C   0  0  0  0  0  0  0  0  0  0  0  0
  -49.8721   69.2364   64.5695 O   0  0  0  0  0  0  0  0  0  0  0  0
  -49.6850   67.9589   66.2962 N   0  0  0  0  0  0  0  0  0  0  0  0
  -50.0496   67.3590   66.9865 H   0  0  0  0  0  0  0  0  0  0  0  0
  -51.9306   69.0150   65.7811 C   0  0  0  0  0  0  0  0  0  0  0  0
  -53.0942   67.5177   64.0216 C   0  0  0  0  0  0  0  0  0  0  0  0
  -52.5865   67.8756   62.9567 O   0  0  0  0  0  0  0  0  0  0  0  0
  -52.7542   67.9638   65.1947 N   0  0  0  0  0  0  0  0  0  0  0  0
  -53.1830   67.4297   65.9020 H   0  0  0  0  0  0  0  0  0  0  0  0
  -53.7268   65.2499   64.8014 N   0  0  0  0  0  0  0  0  0  0  0  0
  -54.1415   66.4206   64.0450 C   0  0  0  0  0  0  0  0  0  0  0  0
  -54.4694   64.5510   64.7804 H   0  0  0  0  0  0  0  0  0  0  0  0
  -53.5396   65.5181   65.7675 H   0  0  0  0  0  0  0  0  0  0  0  0
  -52.2023   69.1340   67.2836 C   0  0  0  0  0  0  0  0  0  0  0  0
  -53.5628   68.6292   67.7679 C   0  0  0  0  0  0  0  0  0  0  0  0
  -53.4147   67.9053   69.1021 C   0  0  0  0  0  0  0  0  0  0  0  0
  -54.5511   69.7843   67.8867 C   0  0  0  0  0  0  0  0  0  0  0  0
  -46.8063   67.2968   70.6079 C   0  0  0  0  0  0  0  0  0  0  0  0
  -48.0376   66.3965   70.6037 C   0  0  0  0  0  0  0  0  0  0  0  0
  -45.7635   66.6580   71.3543 O   0  0  0  0  0  0  0  0  0  0  0  0
  -45.5372   65.8129   70.9354 H   0  0  0  0  0  0  0  0  0  0  0  0
  -43.7305   63.8981   68.2828 C   0  0  0  0  0  0  0  0  0  0  0  0
  -44.1574   62.9177   67.2053 C   0  0  0  0  0  0  0  0  0  0  0  0
  -43.3254   62.0969   66.7626 O   0  0  0  0  0  0  0  0  0  0  0  0
  -45.3365   62.9686   66.7919 O   0  0  0  0  0  0  0  0  0  0  0  0
  -42.4504   62.0896   67.0979 H   0  0  0  0  0  0  0  0  0  0  0  0
  -42.8556   66.5963   63.6549 C   0  0  0  0  0  0  0  0  0  0  0  0
  -43.3911   67.4681   62.5297 C   0  0  0  0  0  0  0  0  0  0  0  0
  -43.0757   66.9236   61.1449 C   0  0  0  0  0  0  0  0  0  0  0  0
  -43.8304   67.2169   60.1911 O   0  0  0  0  0  0  0  0  0  0  0  0
  -42.0648   66.1974   61.0150 O   0  0  0  0  0  0  0  0  0  0  0  0
  -41.5280   66.0041   61.7583 H   0  0  0  0  0  0  0  0  0  0  0  0
  -40.4085   63.0526   61.5683 C   0  0  0  0  0  0  0  0  0  0  0  0
  -39.2402   64.0163   61.4528 C   0  0  0  0  0  0  0  0  0  0  0  0
  -39.4385   65.2377   61.6275 O   0  0  0  0  0  0  0  0  0  0  0  0
  -38.1123   63.5498   61.1824 O   0  0  0  0  0  0  0  0  0  0  0  0
  -38.0042   62.6274   61.0585 H   0  0  0  0  0  0  0  0  0  0  0  0
  -34.6631   64.1603   65.5202 C   0  0  0  0  0  0  0  0  0  0  0  0
  -34.1123   65.3239   64.6934 C   0  0  0  0  0  0  0  0  0  0  0  0
  -32.8154   65.8427   65.3049 C   0  0  0  0  0  0  0  0  0  0  0  0
  -33.8942   64.8962   63.2460 C   0  0  0  0  0  0  0  0  0  0  0  0
130128  2  0  0  0
128129  1  0  0  0
128127  1  0  0  0
127 95  1  0  0  0
122120  1  0  0  0
115116  1  0  0  0
135134  2  0  0  0
145144  1  0  0  0
120121  1  0  0  0
120119  1  0  0  0
116111  1  0  0  0
 95 98  1  0  0  0
 95 91  1  0  0  0
146144  1  0  0  0
111113  1  0  0  0
111112  2  0  0  0
113110  1  0  0  0
134133  1  0  0  0
134136  1  0  0  0
110119  1  0  0  0
110106  1  0  0  0
 98 96  1  0  0  0
125123  1  0  0  0
144143  1  0  0  0
133132  1  0  0  0
 91 92  2  0  0  0
 91 93  1  0  0  0
 93 90  1  0  0  0
123100  1  0  0  0
123124  1  0  0  0
 96 97  2  0  0  0
 96100  1  0  0  0
106108  1  0  0  0
106107  2  0  0  0
103100  1  0  0  0
103101  1  0  0  0
108105  1  0  0  0
 90132  1  0  0  0
 90 86  1  0  0  0
143  1  1  0  0  0
101105  1  0  0  0
101102  2  0  0  0
 78 77  1  0  0  0
 77 79  1  0  0  0
 77 76  1  0  0  0
 61 60  1  0  0  0
  1 74  1  0  0  0
  1  2  1  0  0  0
 86 87  2  0  0  0
 86 88  1  0  0  0
 74 72  1  0  0  0
 72 76  1  0  0  0
 72 73  2  0  0  0
 88 85  1  0  0  0
 76 83  1  0  0  0
 83 81  1  0  0  0
  2  3  2  0  0  0
  2  4  1  0  0  0
 60 58  1  0  0  0
 44 46  1  0  0  0
 59 58  1  0  0  0
 56 55  1  0  0  0
 57 55  1  0  0  0
 58 16  1  0  0  0
 55 54  1  0  0  0
 81 85  1  0  0  0
 81 82  2  0  0  0
 85138  1  0  0  0
  4  6  1  0  0  0
 45 46  1  0  0  0
 46 43  2  0  0  0
138139  1  0  0  0
 70 71  1  0  0  0
 70 68  1  0  0  0
139140  2  0  0  0
139141  1  0  0  0
 16 14  1  0  0  0
 16 17  1  0  0  0
  6 68  1  0  0  0
  6  7  1  0  0  0
 43 42  1  0  0  0
 14 12  1  0  0  0
 42 41  1  0  0  0
 54 21  1  0  0  0
 19 17  1  0  0  0
 19 21  1  0  0  0
 17 18  2  0  0  0
  9  7  1  0  0  0
  9 11  1  0  0  0
 68 69  1  0  0  0
 21 22  1  0  0  0
  7  8  2  0  0  0
 66 64  2  0  0  0
 62 11  1  0  0  0
 62 63  1  0  0  0
 12 11  1  0  0  0
 12 13  2  0  0  0
 41 40  1  0  0  0
 64 63  1  0  0  0
 64 65  1  0  0  0
 22 23  2  0  0  0
 22 24  1  0  0  0
 40 37  1  0  0  0
 24 26  1  0  0  0
 37 35  1  0  0  0
 37 38  1  0  0  0
 35 33  1  0  0  0
 30 32  1  0  0  0
 30 28  1  0  0  0
 51 52  1  0  0  0
 51 32  1  0  0  0
 26 27  1  0  0  0
 26 28  1  0  0  0
 33 32  1  0  0  0
 33 34  2  0  0  0
 38 39  2  0  0  0
 28 29  2  0  0  0
115117  1  0  0  0
115118  1  0  0  0
113114  1  0  0  0
108109  1  0  0  0
103104  1  0  0  0
125126  1  0  0  0
 98 99  1  0  0  0
129131  1  0  0  0
 93 94  1  0  0  0
136137  1  0  0  0
 88 89  1  0  0  0
141142  1  0  0  0
 83 84  1  0  0  0
 79 80  1  0  0  0
 74 75  1  0  0  0
  4  5  1  0  0  0
  9 10  1  0  0  0
 65 67  1  0  0  0
 14 15  1  0  0  0
 19 20  1  0  0  0
 24 25  1  0  0  0
 30 31  1  0  0  0
 52 53  1  0  0  0
 35 36  1  0  0  0
 44 47  1  0  0  0
 44 48  1  0  0  0
 45 49  1  0  0  0
 45 50  1  0  0  0
M  END
> <MODEL>
    1                                                                     

> <minimizedAffinity>
-8.17317

> <CNNscore>
0.0654481426

> <CNNaffinity>
6.2081131935

> <CNN_VS>
0.4063094854

> <CNNaffinity_variance>
1.6295158863

$$$$



146145  0  0  0  0  0  0  0  0999 V2000
  -32.2772   69.0180   60.3991 C   0  0  0  0  0  0  0  0  0  0  0  0
  -32.3037   69.0891   61.9222 C   0  0  0  0  0  0  0  0  0  0  0  0
  -32.6581   70.1224   62.4938 O   0  0  0  0  0  0  0  0  0  0  0  0
  -31.7478   68.1879   62.6253 N   0  0  0  0  0  0  0  0  0  0  0  0
  -31.2652   67.4722   62.1519 H   0  0  0  0  0  0  0  0  0  0  0  0
  -31.7731   68.1375   64.0830 C   0  0  0  0  0  0  0  0  0  0  0  0
  -33.2024   67.8972   64.5656 C   0  0  0  0  0  0  0  0  0  0  0  0
  -33.6730   66.7578   64.5860 O   0  0  0  0  0  0  0  0  0  0  0  0
  -33.9051   68.9735   64.7034 N   0  0  0  0  0  0  0  0  0  0  0  0
  -33.5455   69.8574   64.4611 H   0  0  0  0  0  0  0  0  0  0  0  0
  -35.2560   68.8191   65.2343 C   0  0  0  0  0  0  0  0  0  0  0  0
  -36.2721   68.6336   64.1121 C   0  0  0  0  0  0  0  0  0  0  0  0
  -36.2086   69.3193   63.0900 O   0  0  0  0  0  0  0  0  0  0  0  0
  -37.2084   67.7180   64.4209 N   0  0  0  0  0  0  0  0  0  0  0  0
  -37.2361   67.2550   65.2893 H   0  0  0  0  0  0  0  0  0  0  0  0
  -38.1786   67.4691   63.3612 C   0  0  0  0  0  0  0  0  0  0  0  0
  -39.4644   68.2414   63.6479 C   0  0  0  0  0  0  0  0  0  0  0  0
  -39.5431   69.4459   63.3918 O   0  0  0  0  0  0  0  0  0  0  0  0
  -40.4218   67.5465   64.2266 N   0  0  0  0  0  0  0  0  0  0  0  0
  -40.2803   66.5994   64.4552 H   0  0  0  0  0  0  0  0  0  0  0  0
  -41.6944   68.1945   64.5253 C   0  0  0  0  0  0  0  0  0  0  0  0
  -42.2452   67.7182   65.8647 C   0  0  0  0  0  0  0  0  0  0  0  0
  -42.0009   66.5806   66.2719 O   0  0  0  0  0  0  0  0  0  0  0  0
  -42.9781   68.5185   66.5984 N   0  0  0  0  0  0  0  0  0  0  0  0
  -43.1851   69.4151   66.2485 H   0  0  0  0  0  0  0  0  0  0  0  0
  -43.5034   68.1472   67.9095 C   0  0  0  0  0  0  0  0  0  0  0  0
  -43.4028   69.3256   68.8764 C   0  0  0  0  0  0  0  0  0  0  0  0
  -44.9500   67.6705   67.8065 C   0  0  0  0  0  0  0  0  0  0  0  0
  -45.7718   67.9716   68.6745 O   0  0  0  0  0  0  0  0  0  0  0  0
  -45.2199   66.8189   66.7607 N   0  0  0  0  0  0  0  0  0  0  0  0
  -44.5148   66.5333   66.1359 H   0  0  0  0  0  0  0  0  0  0  0  0
  -46.5970   66.3571   66.6175 C   0  0  0  0  0  0  0  0  0  0  0  0
  -46.6507   64.8655   66.3061 C   0  0  0  0  0  0  0  0  0  0  0  0
  -47.7326   64.2794   66.2342 O   0  0  0  0  0  0  0  0  0  0  0  0
  -45.5399   64.1640   66.2042 N   0  0  0  0  0  0  0  0  0  0  0  0
  -44.6805   64.6442   66.2087 H   0  0  0  0  0  0  0  0  0  0  0  0
  -45.5225   62.7095   66.0850 C   0  0  0  0  0  0  0  0  0  0  0  0
  -44.3012   62.1171   66.7824 C   0  0  0  0  0  0  0  0  0  0  0  0
  -43.3491   61.6941   66.1247 O   0  0  0  0  0  0  0  0  0  0  0  0
  -45.5397   62.2901   64.6133 C   0  0  0  0  0  0  0  0  0  0  0  0
  -46.5231   61.1732   64.3031 C   0  0  0  0  0  0  0  0  0  0  0  0
  -45.9319   60.1523   63.3412 C   0  0  0  0  0  0  0  0  0  0  0  0
  -44.6947   59.5758   63.8608 N   0  0  0  0  0  0  0  0  0  0  0  0
  -43.3806   60.2845   62.0975 N   0  0  0  0  0  0  0  0  0  0  0  0
  -42.4505   59.0904   63.8194 N   0  0  0  0  0  0  0  0  0  0  0  0
  -43.5112   59.6509   63.2579 C   0  0  0  0  0  0  0  0  0  0  0  0
  -42.5000   60.3339   61.6600 H   0  0  0  0  0  0  0  0  0  0  0  0
  -44.1644   60.7045   61.6750 H   0  0  0  0  0  0  0  0  0  0  0  0
  -41.5730   59.1439   63.3762 H   0  0  0  0  0  0  0  0  0  0  0  0
  -42.5396   58.6203   64.6798 H   0  0  0  0  0  0  0  0  0  0  0  0
  -47.3137   67.1421   65.5184 C   0  0  0  0  0  0  0  0  0  0  0  0
  -47.0607   66.5706   64.2462 O   0  0  0  0  0  0  0  0  0  0  0  0
  -47.3873   65.6573   64.2312 H   0  0  0  0  0  0  0  0  0  0  0  0
  -42.7105   67.9180   63.4142 C   0  0  0  0  0  0  0  0  0  0  0  0
  -42.6495   66.5324   62.7698 C   0  0  0  0  0  0  0  0  0  0  0  0
  -43.8465   65.6924   63.2048 C   0  0  0  0  0  0  0  0  0  0  0  0
  -42.5966   66.6491   61.2507 C   0  0  0  0  0  0  0  0  0  0  0  0
  -38.4805   65.9610   63.2139 C   0  0  0  0  0  0  0  0  0  0  0  0
  -38.6288   65.5815   61.7367 C   0  0  0  0  0  0  0  0  0  0  0  0
  -37.3832   65.1282   63.8860 C   0  0  0  0  0  0  0  0  0  0  0  0
  -36.5982   64.2463   62.9244 C   0  0  0  0  0  0  0  0  0  0  0  0
  -35.6366   70.0264   66.0953 C   0  0  0  0  0  0  0  0  0  0  0  0
  -36.3210   69.6578   67.4035 C   0  0  0  0  0  0  0  0  0  0  0  0
  -37.8170   69.9307   67.3958 C   0  0  0  0  0  0  0  0  0  0  0  0
  -38.2438   70.9857   67.9154 O   0  0  0  0  0  0  0  0  0  0  0  0
  -38.5679   69.0810   66.8657 O   0  0  0  0  0  0  0  0  0  0  0  0
  -37.6443   71.5938   68.3012 H   0  0  0  0  0  0  0  0  0  0  0  0
  -31.2094   69.4357   64.7028 C   0  0  0  0  0  0  0  0  0  0  0  0
  -31.3078   69.3918   66.2311 C   0  0  0  0  0  0  0  0  0  0  0  0
  -29.7605   69.6566   64.2529 C   0  0  0  0  0  0  0  0  0  0  0  0
  -29.0185   70.7178   65.0544 C   0  0  0  0  0  0  0  0  0  0  0  0
  -30.2700   69.5751   59.3540 C   0  0  0  0  0  0  0  0  0  0  0  0
  -30.5301   70.7684   59.5205 O   0  0  0  0  0  0  0  0  0  0  0  0
  -30.9526   68.6426   59.9188 N   0  0  0  0  0  0  0  0  0  0  0  0
  -30.6013   67.7286   60.0208 H   0  0  0  0  0  0  0  0  0  0  0  0
  -28.9161   69.1482   58.7921 C   0  0  0  0  0  0  0  0  0  0  0  0
  -29.0797   68.7216   57.3218 C   0  0  0  0  0  0  0  0  0  0  0  0
  -27.7309   68.3961   56.6892 C   0  0  0  0  0  0  0  0  0  0  0  0
  -29.9183   67.5607   57.2576 O   0  0  0  0  0  0  0  0  0  0  0  0
  -29.5042   66.8350   57.7503 H   0  0  0  0  0  0  0  0  0  0  0  0
  -27.2579   68.3929   60.4175 C   0  0  0  0  0  0  0  0  0  0  0  0
  -26.9175   69.5492   60.6750 O   0  0  0  0  0  0  0  0  0  0  0  0
  -28.3385   68.0760   59.5941 N   0  0  0  0  0  0  0  0  0  0  0  0
  -28.6985   67.1605   59.5557 H   0  0  0  0  0  0  0  0  0  0  0  0
  -26.6333   67.2168   61.1657 C   0  0  0  0  0  0  0  0  0  0  0  0
  -28.4779   65.6731   61.5895 C   0  0  0  0  0  0  0  0  0  0  0  0
  -28.9530   66.4785   62.3923 O   0  0  0  0  0  0  0  0  0  0  0  0
  -27.3801   65.9860   60.9251 N   0  0  0  0  0  0  0  0  0  0  0  0
  -27.0515   65.3623   60.2380 H   0  0  0  0  0  0  0  0  0  0  0  0
  -29.1964   64.3592   61.2933 C   0  0  0  0  0  0  0  0  0  0  0  0
  -28.8919   62.3768   62.6510 C   0  0  0  0  0  0  0  0  0  0  0  0
  -28.1206   61.9070   61.8120 O   0  0  0  0  0  0  0  0  0  0  0  0
  -29.4361   63.6008   62.5176 N   0  0  0  0  0  0  0  0  0  0  0  0
  -29.9897   63.9804   63.2378 H   0  0  0  0  0  0  0  0  0  0  0  0
  -29.2105   61.6068   63.9305 C   0  0  0  0  0  0  0  0  0  0  0  0
  -30.4008   62.6184   65.6154 C   0  0  0  0  0  0  0  0  0  0  0  0
  -29.3110   63.1078   65.9177 O   0  0  0  0  0  0  0  0  0  0  0  0
  -30.5001   62.0130   64.4804 N   0  0  0  0  0  0  0  0  0  0  0  0
  -31.3591   61.8421   64.0307 H   0  0  0  0  0  0  0  0  0  0  0  0
  -31.6827   63.1089   66.2830 C   0  0  0  0  0  0  0  0  0  0  0  0
  -33.7072   62.1248   65.8695 C   0  0  0  0  0  0  0  0  0  0  0  0
  -33.5090   62.8531   64.8947 O   0  0  0  0  0  0  0  0  0  0  0  0
  -32.5682   61.9906   66.5874 N   0  0  0  0  0  0  0  0  0  0  0  0
  -32.3694   61.2573   67.2136 H   0  0  0  0  0  0  0  0  0  0  0  0
  -34.7933   61.0657   65.8323 C   0  0  0  0  0  0  0  0  0  0  0  0
  -36.9919   61.2006   65.0544 C   0  0  0  0  0  0  0  0  0  0  0  0
  -37.2010   61.3011   66.2662 O   0  0  0  0  0  0  0  0  0  0  0  0
  -35.7075   61.2238   64.7131 N   0  0  0  0  0  0  0  0  0  0  0  0
  -35.4021   61.3381   63.7841 H   0  0  0  0  0  0  0  0  0  0  0  0
  -38.1573   61.0980   64.0756 C   0  0  0  0  0  0  0  0  0  0  0  0
  -37.5571   58.9592   62.7500 C   0  0  0  0  0  0  0  0  0  0  0  0
  -36.3986   59.1635   62.3813 O   0  0  0  0  0  0  0  0  0  0  0  0
  -38.2462   59.7552   63.5132 N   0  0  0  0  0  0  0  0  0  0  0  0
  -39.0817   59.3191   63.7977 H   0  0  0  0  0  0  0  0  0  0  0  0
  -38.3591   57.4456   60.9564 N   0  0  0  0  0  0  0  0  0  0  0  0
  -38.2628   57.6655   62.3906 C   0  0  0  0  0  0  0  0  0  0  0  0
  -38.8410   56.5643   60.7791 H   0  0  0  0  0  0  0  0  0  0  0  0
  -37.4223   57.4077   60.5546 H   0  0  0  0  0  0  0  0  0  0  0  0
  -39.4646   61.4720   64.7803 C   0  0  0  0  0  0  0  0  0  0  0  0
  -39.9120   62.9289   64.6489 C   0  0  0  0  0  0  0  0  0  0  0  0
  -41.2101   63.0144   63.8528 C   0  0  0  0  0  0  0  0  0  0  0  0
  -40.0795   63.5637   66.0251 C   0  0  0  0  0  0  0  0  0  0  0  0
  -31.3310   63.9048   67.5538 C   0  0  0  0  0  0  0  0  0  0  0  0
  -32.5042   64.7700   68.0031 C   0  0  0  0  0  0  0  0  0  0  0  0
  -30.9953   62.9912   68.6051 O   0  0  0  0  0  0  0  0  0  0  0  0
  -31.7568   62.4205   68.7929 H   0  0  0  0  0  0  0  0  0  0  0  0
  -29.1924   60.1017   63.6570 C   0  0  0  0  0  0  0  0  0  0  0  0
  -30.4055   59.3823   64.2182 C   0  0  0  0  0  0  0  0  0  0  0  0
  -30.3933   59.0028   65.4090 O   0  0  0  0  0  0  0  0  0  0  0  0
  -31.3822   59.1895   63.4615 O   0  0  0  0  0  0  0  0  0  0  0  0
  -29.6423   59.1659   65.9450 H   0  0  0  0  0  0  0  0  0  0  0  0
  -30.5146   64.6333   60.5641 C   0  0  0  0  0  0  0  0  0  0  0  0
  -31.6939   63.8426   61.1089 C   0  0  0  0  0  0  0  0  0  0  0  0
  -32.5356   64.6267   62.1039 C   0  0  0  0  0  0  0  0  0  0  0  0
  -33.5720   65.2011   61.7023 O   0  0  0  0  0  0  0  0  0  0  0  0
  -32.1533   64.6661   63.2950 O   0  0  0  0  0  0  0  0  0  0  0  0
  -31.3697   64.2203   63.5505 H   0  0  0  0  0  0  0  0  0  0  0  0
  -25.1707   67.0466   60.7509 C   0  0  0  0  0  0  0  0  0  0  0  0
  -24.4105   66.0781   61.6403 C   0  0  0  0  0  0  0  0  0  0  0  0
  -23.3459   66.4517   62.1776 O   0  0  0  0  0  0  0  0  0  0  0  0
  -24.8796   64.9307   61.8031 O   0  0  0  0  0  0  0  0  0  0  0  0
  -25.6811   64.6883   61.3827 H   0  0  0  0  0  0  0  0  0  0  0  0
  -33.3289   68.0209   59.9053 C   0  0  0  0  0  0  0  0  0  0  0  0
  -34.7903   68.3934   60.1625 C   0  0  0  0  0  0  0  0  0  0  0  0
  -35.1565   69.6632   59.4018 C   0  0  0  0  0  0  0  0  0  0  0  0
  -35.7128   67.2439   59.7708 C   0  0  0  0  0  0  0  0  0  0  0  0
130128  2  0  0  0
128129  1  0  0  0
128127  1  0  0  0
127 95  1  0  0  0
122120  1  0  0  0
115116  1  0  0  0
135134  2  0  0  0
145144  1  0  0  0
120121  1  0  0  0
120119  1  0  0  0
116111  1  0  0  0
 95 98  1  0  0  0
 95 91  1  0  0  0
146144  1  0  0  0
111113  1  0  0  0
111112  2  0  0  0
113110  1  0  0  0
134133  1  0  0  0
134136  1  0  0  0
110119  1  0  0  0
110106  1  0  0  0
 98 96  1  0  0  0
125123  1  0  0  0
144143  1  0  0  0
133132  1  0  0  0
 91 92  2  0  0  0
 91 93  1  0  0  0
 93 90  1  0  0  0
123100  1  0  0  0
123124  1  0  0  0
 96 97  2  0  0  0
 96100  1  0  0  0
106108  1  0  0  0
106107  2  0  0  0
103100  1  0  0  0
103101  1  0  0  0
108105  1  0  0  0
 90132  1  0  0  0
 90 86  1  0  0  0
143  1  1  0  0  0
101105  1  0  0  0
101102  2  0  0  0
 78 77  1  0  0  0
 77 79  1  0  0  0
 77 76  1  0  0  0
 61 60  1  0  0  0
  1 74  1  0  0  0
  1  2  1  0  0  0
 86 87  2  0  0  0
 86 88  1  0  0  0
 74 72  1  0  0  0
 72 76  1  0  0  0
 72 73  2  0  0  0
 88 85  1  0  0  0
 76 83  1  0  0  0
 83 81  1  0  0  0
  2  3  2  0  0  0
  2  4  1  0  0  0
 60 58  1  0  0  0
 44 46  1  0  0  0
 59 58  1  0  0  0
 56 55  1  0  0  0
 57 55  1  0  0  0
 58 16  1  0  0  0
 55 54  1  0  0  0
 81 85  1  0  0  0
 81 82  2  0  0  0
 85138  1  0  0  0
  4  6  1  0  0  0
 45 46  1  0  0  0
 46 43  2  0  0  0
138139  1  0  0  0
 70 71  1  0  0  0
 70 68  1  0  0  0
139140  2  0  0  0
139141  1  0  0  0
 16 14  1  0  0  0
 16 17  1  0  0  0
  6 68  1  0  0  0
  6  7  1  0  0  0
 43 42  1  0  0  0
 14 12  1  0  0  0
 42 41  1  0  0  0
 54 21  1  0  0  0
 19 17  1  0  0  0
 19 21  1  0  0  0
 17 18  2  0  0  0
  9  7  1  0  0  0
  9 11  1  0  0  0
 68 69  1  0  0  0
 21 22  1  0  0  0
  7  8  2  0  0  0
 66 64  2  0  0  0
 62 11  1  0  0  0
 62 63  1  0  0  0
 12 11  1  0  0  0
 12 13  2  0  0  0
 41 40  1  0  0  0
 64 63  1  0  0  0
 64 65  1  0  0  0
 22 23  2  0  0  0
 22 24  1  0  0  0
 40 37  1  0  0  0
 24 26  1  0  0  0
 37 35  1  0  0  0
 37 38  1  0  0  0
 35 33  1  0  0  0
 30 32  1  0  0  0
 30 28  1  0  0  0
 51 52  1  0  0  0
 51 32  1  0  0  0
 26 27  1  0  0  0
 26 28  1  0  0  0
 33 32  1  0  0  0
 33 34  2  0  0  0
 38 39  2  0  0  0
 28 29  2  0  0  0
115117  1  0  0  0
115118  1  0  0  0
113114  1  0  0  0
108109  1  0  0  0
103104  1  0  0  0
125126  1  0  0  0
 98 99  1  0  0  0
129131  1  0  0  0
 93 94  1  0  0  0
136137  1  0  0  0
 88 89  1  0  0  0
141142  1  0  0  0
 83 84  1  0  0  0
 79 80  1  0  0  0
 74 75  1  0  0  0
  4  5  1  0  0  0
  9 10  1  0  0  0
 65 67  1  0  0  0
 14 15  1  0  0  0
 19 20  1  0  0  0
 24 25  1  0  0  0
 30 31  1  0  0  0
 52 53  1  0  0  0
 35 36  1  0  0  0
 44 47  1  0  0  0
 44 48  1  0  0  0
 45 49  1  0  0  0
 45 50  1  0  0  0
M  END
> <MODEL>
    1                                                                     

> <minimizedAffinity>
-7.31277

> <CNNscore>
0.0587583743

> <CNNaffinity>
7.3879690170

> <CNN_VS>
0.4341050386

> <CNNaffinity_variance>
3.5812046528

$$$$



146145  0  0  0  0  0  0  0  0999 V2000
  -36.7882   63.1400   65.1348 C   0  0  0  0  0  0  0  0  0  0  0  0
  -36.1606   63.9613   64.0136 C   0  0  0  0  0  0  0  0  0  0  0  0
  -36.6424   63.9412   62.8789 O   0  0  0  0  0  0  0  0  0  0  0  0
  -35.0129   64.4881   64.1570 N   0  0  0  0  0  0  0  0  0  0  0  0
  -34.5300   64.3093   64.9962 H   0  0  0  0  0  0  0  0  0  0  0  0
  -34.3593   65.3384   63.1681 C   0  0  0  0  0  0  0  0  0  0  0  0
  -33.1249   64.6295   62.6141 C   0  0  0  0  0  0  0  0  0  0  0  0
  -32.5201   63.8001   63.2972 O   0  0  0  0  0  0  0  0  0  0  0  0
  -32.6638   65.1413   61.5202 N   0  0  0  0  0  0  0  0  0  0  0  0
  -33.0592   65.9515   61.1246 H   0  0  0  0  0  0  0  0  0  0  0  0
  -31.5306   64.4637   60.8980 C   0  0  0  0  0  0  0  0  0  0  0  0
  -30.2062   65.0067   61.4245 C   0  0  0  0  0  0  0  0  0  0  0  0
  -29.1507   64.4126   61.1966 O   0  0  0  0  0  0  0  0  0  0  0  0
  -30.3717   66.1150   62.1693 N   0  0  0  0  0  0  0  0  0  0  0  0
  -31.2569   66.4979   62.3668 H   0  0  0  0  0  0  0  0  0  0  0  0
  -29.1297   66.7013   62.6591 C   0  0  0  0  0  0  0  0  0  0  0  0
  -29.2557   67.0038   64.1506 C   0  0  0  0  0  0  0  0  0  0  0  0
  -28.2612   67.3057   64.8157 O   0  0  0  0  0  0  0  0  0  0  0  0
  -30.4638   66.8591   64.6547 N   0  0  0  0  0  0  0  0  0  0  0  0
  -31.2090   66.5635   64.0832 H   0  0  0  0  0  0  0  0  0  0  0  0
  -30.6865   67.1413   66.0687 C   0  0  0  0  0  0  0  0  0  0  0  0
  -31.0546   65.8697   66.8249 C   0  0  0  0  0  0  0  0  0  0  0  0
  -31.0551   65.8537   68.0575 O   0  0  0  0  0  0  0  0  0  0  0  0
  -31.3810   64.7837   66.1692 N   0  0  0  0  0  0  0  0  0  0  0  0
  -31.3519   64.8050   65.1854 H   0  0  0  0  0  0  0  0  0  0  0  0
  -31.7860   63.5430   66.8245 C   0  0  0  0  0  0  0  0  0  0  0  0
  -33.2487   63.2300   66.5142 C   0  0  0  0  0  0  0  0  0  0  0  0
  -30.8946   62.3799   66.3969 C   0  0  0  0  0  0  0  0  0  0  0  0
  -29.9218   62.0527   67.0796 O   0  0  0  0  0  0  0  0  0  0  0  0
  -31.1945   61.8216   65.1762 N   0  0  0  0  0  0  0  0  0  0  0  0
  -31.9291   62.1677   64.6197 H   0  0  0  0  0  0  0  0  0  0  0  0
  -30.3764   60.6937   64.7418 C   0  0  0  0  0  0  0  0  0  0  0  0
  -29.0706   61.1672   64.1128 C   0  0  0  0  0  0  0  0  0  0  0  0
  -29.0203   61.4542   62.9152 O   0  0  0  0  0  0  0  0  0  0  0  0
  -27.9576   61.1851   64.8178 N   0  0  0  0  0  0  0  0  0  0  0  0
  -28.0124   61.0074   65.7846 H   0  0  0  0  0  0  0  0  0  0  0  0
  -26.6473   61.4556   64.2344 C   0  0  0  0  0  0  0  0  0  0  0  0
  -25.6015   60.4751   64.7576 C   0  0  0  0  0  0  0  0  0  0  0  0
  -25.5073   59.3450   64.2762 O   0  0  0  0  0  0  0  0  0  0  0  0
  -26.2125   62.8926   64.5311 C   0  0  0  0  0  0  0  0  0  0  0  0
  -26.4968   63.8675   63.4001 C   0  0  0  0  0  0  0  0  0  0  0  0
  -25.4602   64.9807   63.3412 C   0  0  0  0  0  0  0  0  0  0  0  0
  -24.7670   65.0039   62.0559 N   0  0  0  0  0  0  0  0  0  0  0  0
  -22.6490   64.8202   62.9607 N   0  0  0  0  0  0  0  0  0  0  0  0
  -22.9224   64.9585   60.6887 N   0  0  0  0  0  0  0  0  0  0  0  0
  -23.4475   64.9280   61.9044 C   0  0  0  0  0  0  0  0  0  0  0  0
  -21.6739   64.7647   62.8369 H   0  0  0  0  0  0  0  0  0  0  0  0
  -23.0323   64.7957   63.8671 H   0  0  0  0  0  0  0  0  0  0  0  0
  -21.9464   64.9025   60.5725 H   0  0  0  0  0  0  0  0  0  0  0  0
  -23.5082   65.0370   59.9013 H   0  0  0  0  0  0  0  0  0  0  0  0
  -31.1463   59.8256   63.7461 C   0  0  0  0  0  0  0  0  0  0  0  0
  -31.9221   60.6293   62.8735 O   0  0  0  0  0  0  0  0  0  0  0  0
  -31.3379   61.2212   62.3741 H   0  0  0  0  0  0  0  0  0  0  0  0
  -31.7899   68.1886   66.2389 C   0  0  0  0  0  0  0  0  0  0  0  0
  -31.6311   69.4774   65.4310 C   0  0  0  0  0  0  0  0  0  0  0  0
  -32.9032   70.3154   65.5143 C   0  0  0  0  0  0  0  0  0  0  0  0
  -30.4279   70.2741   65.9229 C   0  0  0  0  0  0  0  0  0  0  0  0
  -28.7650   67.9851   61.8806 C   0  0  0  0  0  0  0  0  0  0  0  0
  -27.8441   67.6580   60.7004 C   0  0  0  0  0  0  0  0  0  0  0  0
  -30.0344   68.6995   61.4034 C   0  0  0  0  0  0  0  0  0  0  0  0
  -30.2600   70.0595   62.0499 C   0  0  0  0  0  0  0  0  0  0  0  0
  -31.5897   64.6052   59.3747 C   0  0  0  0  0  0  0  0  0  0  0  0
  -31.5049   66.0442   58.8869 C   0  0  0  0  0  0  0  0  0  0  0  0
  -32.8359   66.5900   58.3938 C   0  0  0  0  0  0  0  0  0  0  0  0
  -33.8946   66.0450   58.7778 O   0  0  0  0  0  0  0  0  0  0  0  0
  -32.8186   67.5709   57.6165 O   0  0  0  0  0  0  0  0  0  0  0  0
  -33.8596   65.3123   59.3607 H   0  0  0  0  0  0  0  0  0  0  0  0
  -33.9665   66.7059   63.7708 C   0  0  0  0  0  0  0  0  0  0  0  0
  -33.3642   67.6168   62.6962 C   0  0  0  0  0  0  0  0  0  0  0  0
  -35.1819   67.3670   64.4313 C   0  0  0  0  0  0  0  0  0  0  0  0
  -36.0481   68.1702   63.4703 C   0  0  0  0  0  0  0  0  0  0  0  0
  -37.3239   63.7026   67.3321 C   0  0  0  0  0  0  0  0  0  0  0  0
  -36.3980   62.9906   67.7259 O   0  0  0  0  0  0  0  0  0  0  0  0
  -37.4738   64.0021   66.0902 N   0  0  0  0  0  0  0  0  0  0  0  0
  -38.0197   64.7688   65.8015 H   0  0  0  0  0  0  0  0  0  0  0  0
  -38.1064   64.5701   68.3150 C   0  0  0  0  0  0  0  0  0  0  0  0
  -38.2509   63.8274   69.6559 C   0  0  0  0  0  0  0  0  0  0  0  0
  -39.5332   64.2329   70.3748 C   0  0  0  0  0  0  0  0  0  0  0  0
  -38.2783   62.4149   69.4126 O   0  0  0  0  0  0  0  0  0  0  0  0
  -39.0387   62.1982   68.8507 H   0  0  0  0  0  0  0  0  0  0  0  0
  -40.1615   63.9168   67.1697 C   0  0  0  0  0  0  0  0  0  0  0  0
  -39.8977   62.7182   67.2844 O   0  0  0  0  0  0  0  0  0  0  0  0
  -39.4082   64.9290   67.7647 N   0  0  0  0  0  0  0  0  0  0  0  0
  -39.7438   65.8534   67.8115 H   0  0  0  0  0  0  0  0  0  0  0  0
  -41.4744   64.3630   66.5292 C   0  0  0  0  0  0  0  0  0  0  0  0
  -41.7244   66.5780   65.5308 C   0  0  0  0  0  0  0  0  0  0  0  0
  -42.3382   66.9485   66.5333 O   0  0  0  0  0  0  0  0  0  0  0  0
  -41.2375   65.3512   65.4814 N   0  0  0  0  0  0  0  0  0  0  0  0
  -40.6912   65.0922   64.7045 H   0  0  0  0  0  0  0  0  0  0  0  0
  -41.4471   67.5517   64.3884 C   0  0  0  0  0  0  0  0  0  0  0  0
  -42.6309   67.8018   62.2902 C   0  0  0  0  0  0  0  0  0  0  0  0
  -41.6301   67.4380   61.6693 O   0  0  0  0  0  0  0  0  0  0  0  0
  -42.6637   67.8425   63.6354 N   0  0  0  0  0  0  0  0  0  0  0  0
  -43.4989   68.0659   64.1062 H   0  0  0  0  0  0  0  0  0  0  0  0
  -43.9176   68.1585   61.5495 C   0  0  0  0  0  0  0  0  0  0  0  0
  -45.2495   66.5952   62.5797 C   0  0  0  0  0  0  0  0  0  0  0  0
  -44.2740   65.8562   62.4350 O   0  0  0  0  0  0  0  0  0  0  0  0
  -45.0921   67.8571   62.3620 N   0  0  0  0  0  0  0  0  0  0  0  0
  -45.7026   68.5472   62.7089 H   0  0  0  0  0  0  0  0  0  0  0  0
  -46.4349   66.1556   63.4345 C   0  0  0  0  0  0  0  0  0  0  0  0
  -47.3513   64.0863   63.0941 C   0  0  0  0  0  0  0  0  0  0  0  0
  -47.7456   64.7630   62.1420 O   0  0  0  0  0  0  0  0  0  0  0  0
  -46.3530   64.7318   63.7400 N   0  0  0  0  0  0  0  0  0  0  0  0
  -45.6805   64.3091   64.3217 H   0  0  0  0  0  0  0  0  0  0  0  0
  -47.4837   62.5747   63.0726 C   0  0  0  0  0  0  0  0  0  0  0  0
  -47.8560   60.9483   64.7077 C   0  0  0  0  0  0  0  0  0  0  0  0
  -48.6460   60.5522   63.8466 O   0  0  0  0  0  0  0  0  0  0  0  0
  -47.0708   61.9472   64.3172 N   0  0  0  0  0  0  0  0  0  0  0  0
  -46.2792   62.2365   64.8260 H   0  0  0  0  0  0  0  0  0  0  0  0
  -47.8082   60.2799   66.0779 C   0  0  0  0  0  0  0  0  0  0  0  0
  -47.5911   57.7768   66.6939 C   0  0  0  0  0  0  0  0  0  0  0  0
  -47.5934   57.7816   67.9267 O   0  0  0  0  0  0  0  0  0  0  0  0
  -47.7490   58.8286   65.9457 N   0  0  0  0  0  0  0  0  0  0  0  0
  -47.8631   58.5652   65.0040 H   0  0  0  0  0  0  0  0  0  0  0  0
  -48.3684   56.4068   64.7782 N   0  0  0  0  0  0  0  0  0  0  0  0
  -47.4820   56.4715   65.9291 C   0  0  0  0  0  0  0  0  0  0  0  0
  -48.2495   55.5098   64.3074 H   0  0  0  0  0  0  0  0  0  0  0  0
  -48.1421   57.1627   64.1318 H   0  0  0  0  0  0  0  0  0  0  0  0
  -46.6023   60.7962   66.8682 C   0  0  0  0  0  0  0  0  0  0  0  0
  -46.9004   61.3968   68.2431 C   0  0  0  0  0  0  0  0  0  0  0  0
  -48.3936   61.6710   68.3887 C   0  0  0  0  0  0  0  0  0  0  0  0
  -46.4111   60.4693   69.3501 C   0  0  0  0  0  0  0  0  0  0  0  0
  -46.4852   67.0009   64.7211 C   0  0  0  0  0  0  0  0  0  0  0  0
  -47.3645   66.3411   65.7785 C   0  0  0  0  0  0  0  0  0  0  0  0
  -45.1586   67.1469   65.2420 O   0  0  0  0  0  0  0  0  0  0  0  0
  -44.7968   66.2724   65.4549 H   0  0  0  0  0  0  0  0  0  0  0  0
  -43.9032   69.6357   61.1518 C   0  0  0  0  0  0  0  0  0  0  0  0
  -43.7246   70.5672   62.3370 C   0  0  0  0  0  0  0  0  0  0  0  0
  -44.5121   70.4828   63.3038 O   0  0  0  0  0  0  0  0  0  0  0  0
  -42.7893   71.3965   62.3026 O   0  0  0  0  0  0  0  0  0  0  0  0
  -45.2012   69.8480   63.2927 H   0  0  0  0  0  0  0  0  0  0  0  0
  -40.8320   68.8428   64.9353 C   0  0  0  0  0  0  0  0  0  0  0  0
  -40.1268   68.6693   66.2715 C   0  0  0  0  0  0  0  0  0  0  0  0
  -38.6755   68.2354   66.1337 C   0  0  0  0  0  0  0  0  0  0  0  0
  -38.4218   67.0359   65.8845 O   0  0  0  0  0  0  0  0  0  0  0  0
  -37.7860   69.1041   66.2768 O   0  0  0  0  0  0  0  0  0  0  0  0
  -38.0232   69.9913   66.4628 H   0  0  0  0  0  0  0  0  0  0  0  0
  -42.2229   63.1534   65.9665 C   0  0  0  0  0  0  0  0  0  0  0  0
  -43.6795   63.4495   65.6542 C   0  0  0  0  0  0  0  0  0  0  0  0
  -44.2359   64.4217   66.2080 O   0  0  0  0  0  0  0  0  0  0  0  0
  -44.2762   62.7023   64.8487 O   0  0  0  0  0  0  0  0  0  0  0  0
  -43.8239   61.9829   64.4539 H   0  0  0  0  0  0  0  0  0  0  0  0
  -37.7591   62.1120   64.5477 C   0  0  0  0  0  0  0  0  0  0  0  0
  -37.8352   60.7633   65.2659 C   0  0  0  0  0  0  0  0  0  0  0  0
  -38.6661   59.7755   64.4541 C   0  0  0  0  0  0  0  0  0  0  0  0
  -36.4361   60.2120   65.5196 C   0  0  0  0  0  0  0  0  0  0  0  0
130128  2  0  0  0
128129  1  0  0  0
128127  1  0  0  0
127 95  1  0  0  0
122120  1  0  0  0
115116  1  0  0  0
135134  2  0  0  0
145144  1  0  0  0
120121  1  0  0  0
120119  1  0  0  0
116111  1  0  0  0
 95 98  1  0  0  0
 95 91  1  0  0  0
146144  1  0  0  0
111113  1  0  0  0
111112  2  0  0  0
113110  1  0  0  0
134133  1  0  0  0
134136  1  0  0  0
110119  1  0  0  0
110106  1  0  0  0
 98 96  1  0  0  0
125123  1  0  0  0
144143  1  0  0  0
133132  1  0  0  0
 91 92  2  0  0  0
 91 93  1  0  0  0
 93 90  1  0  0  0
123100  1  0  0  0
123124  1  0  0  0
 96 97  2  0  0  0
 96100  1  0  0  0
106108  1  0  0  0
106107  2  0  0  0
103100  1  0  0  0
103101  1  0  0  0
108105  1  0  0  0
 90132  1  0  0  0
 90 86  1  0  0  0
143  1  1  0  0  0
101105  1  0  0  0
101102  2  0  0  0
 78 77  1  0  0  0
 77 79  1  0  0  0
 77 76  1  0  0  0
 61 60  1  0  0  0
  1 74  1  0  0  0
  1  2  1  0  0  0
 86 87  2  0  0  0
 86 88  1  0  0  0
 74 72  1  0  0  0
 72 76  1  0  0  0
 72 73  2  0  0  0
 88 85  1  0  0  0
 76 83  1  0  0  0
 83 81  1  0  0  0
  2  3  2  0  0  0
  2  4  1  0  0  0
 60 58  1  0  0  0
 44 46  1  0  0  0
 59 58  1  0  0  0
 56 55  1  0  0  0
 57 55  1  0  0  0
 58 16  1  0  0  0
 55 54  1  0  0  0
 81 85  1  0  0  0
 81 82  2  0  0  0
 85138  1  0  0  0
  4  6  1  0  0  0
 45 46  1  0  0  0
 46 43  2  0  0  0
138139  1  0  0  0
 70 71  1  0  0  0
 70 68  1  0  0  0
139140  2  0  0  0
139141  1  0  0  0
 16 14  1  0  0  0
 16 17  1  0  0  0
  6 68  1  0  0  0
  6  7  1  0  0  0
 43 42  1  0  0  0
 14 12  1  0  0  0
 42 41  1  0  0  0
 54 21  1  0  0  0
 19 17  1  0  0  0
 19 21  1  0  0  0
 17 18  2  0  0  0
  9  7  1  0  0  0
  9 11  1  0  0  0
 68 69  1  0  0  0
 21 22  1  0  0  0
  7  8  2  0  0  0
 66 64  2  0  0  0
 62 11  1  0  0  0
 62 63  1  0  0  0
 12 11  1  0  0  0
 12 13  2  0  0  0
 41 40  1  0  0  0
 64 63  1  0  0  0
 64 65  1  0  0  0
 22 23  2  0  0  0
 22 24  1  0  0  0
 40 37  1  0  0  0
 24 26  1  0  0  0
 37 35  1  0  0  0
 37 38  1  0  0  0
 35 33  1  0  0  0
 30 32  1  0  0  0
 30 28  1  0  0  0
 51 52  1  0  0  0
 51 32  1  0  0  0
 26 27  1  0  0  0
 26 28  1  0  0  0
 33 32  1  0  0  0
 33 34  2  0  0  0
 38 39  2  0  0  0
 28 29  2  0  0  0
115117  1  0  0  0
115118  1  0  0  0
113114  1  0  0  0
108109  1  0  0  0
103104  1  0  0  0
125126  1  0  0  0
 98 99  1  0  0  0
129131  1  0  0  0
 93 94  1  0  0  0
136137  1  0  0  0
 88 89  1  0  0  0
141142  1  0  0  0
 83 84  1  0  0  0
 79 80  1  0  0  0
 74 75  1  0  0  0
  4  5  1  0  0  0
  9 10  1  0  0  0
 65 67  1  0  0  0
 14 15  1  0  0  0
 19 20  1  0  0  0
 24 25  1  0  0  0
 30 31  1  0  0  0
 52 53  1  0  0  0
 35 36  1  0  0  0
 44 47  1  0  0  0
 44 48  1  0  0  0
 45 49  1  0  0  0
 45 50  1  0  0  0
M  END
> <MODEL>
    1                                                                     

> <minimizedAffinity>
-7.99949

> <CNNscore>
0.0517734550

> <CNNaffinity>
6.7156143188

> <CNN_VS>
0.3476905525

> <CNNaffinity_variance>
3.2394394875

$$$$
